# Mol2 written by MVD (www.molegro.com)

@<TRIPOS>MOLECULE
692703
   38    41    1     0     0
SMALL
USER_CHARGES


@<TRIPOS>ATOM
      1 C1         -0.6300    1.6390    0.7760 C.2       1     LIG1    0.0000
      2 C2         -1.6590    1.3450    1.6840 C.2       1     LIG1    0.0000
      3 N1         -2.6460    0.4850    1.3280 N.2       1     LIG1    0.0000
      4 C3         -2.6890   -0.1250    0.1170 C.2       1     LIG1    0.0000
      5 C4         -1.6810    0.1270   -0.8270 C.2       1     LIG1    0.0000
      6 C5         -0.6470    1.0230   -0.4940 C.2       1     LIG1    0.0000
      7 C6          0.4020    1.3270   -1.3750 C.2       1     LIG1    0.0000
      8 C7          1.3760    2.2750   -1.0860 C.2       1     LIG1    0.0000
      9 C8          1.3360    3.0360    0.1950 C.3       1     LIG1    0.0000
     10 O1          0.4060    2.4610    1.1440 O.3       1     LIG1    0.0000
     11 N2          0.6650    0.7970   -2.5760 N.pl3     1     LIG1    0.0000
     12 C9          1.7920    1.3310   -3.0770 C.2       1     LIG1    0.0000
     13 C10         2.2520    2.3010   -2.1750 C.2       1     LIG1    0.0000
     14 C11         0.8640    4.4860   -0.0200 C.3       1     LIG1    0.0000
     15 C12         2.7050    3.0420    0.8990 C.3       1     LIG1    0.0000
     16 C13         2.3680    0.9050   -4.2870 C.2       1     LIG1    0.0000
     17 N3          1.7680   -0.0340   -5.0320 N.am      1     LIG1    0.0000
     18 O2          3.4580    1.3510   -4.7030 O.2       1     LIG1    0.0000
     19 C14         3.4570    3.1350   -2.3130 C.3       1     LIG1    0.0000
     20 C15         3.8750    3.8810   -3.5880 C.3       1     LIG1    0.0000
     21 C16         3.3500    4.6640   -2.3910 C.3       1     LIG1    0.0000
     22 H1         -1.6620    1.7700    2.6120 H         1     LIG1    0.0000
     23 H2         -3.4510   -0.7660   -0.1050 H         1     LIG1    0.0000
     24 H3         -1.7090   -0.3330   -1.7380 H         1     LIG1    0.0000
     25 H4          0.1430    0.0990   -3.0000 H         1     LIG1    0.0000
     26 H5          0.6730    4.9490    0.9490 H         1     LIG1    0.0000
     27 H6          1.6270    5.0670   -0.5310 H         1     LIG1    0.0000
     28 H7         -0.0580    4.5010   -0.6030 H         1     LIG1    0.0000
     29 H8          2.6060    3.5120    1.8780 H         1     LIG1    0.0000
     30 H9          3.0600    2.0200    1.0340 H         1     LIG1    0.0000
     31 H10         3.4340    3.6040    0.3160 H         1     LIG1    0.0000
     32 H11         2.1830   -0.3240   -5.8580 H         1     LIG1    0.0000
     33 H12         0.9260   -0.4200   -4.7500 H         1     LIG1    0.0000
     34 H13         4.2340    2.7020   -1.6820 H         1     LIG1    0.0000
     35 H14         4.9290    3.9370   -3.8600 H         1     LIG1    0.0000
     36 H15         3.2710    3.8470   -4.4940 H         1     LIG1    0.0000
     37 H16         4.0260    5.2910   -1.8100 H         1     LIG1    0.0000
     38 H17         2.4020    5.1820   -2.5310 H         1     LIG1    0.0000
@<TRIPOS>BOND
     1    1    2 2
     2    1    6 1
     3    1   10 1
     4    2    3 1
     5    2   22 1
     6    3    4 2
     7    4    5 1
     8    4   23 1
     9    5    6 2
    10    5   24 1
    11    6    7 1
    12    7    8 2
    13    7   11 1
    14    8    9 1
    15    8   13 1
    16    9   10 1
    17    9   14 1
    18    9   15 1
    19   11   12 1
    20   11   25 1
    21   12   13 2
    22   12   16 1
    23   13   19 1
    24   14   26 1
    25   14   27 1
    26   14   28 1
    27   15   29 1
    28   15   30 1
    29   15   31 1
    30   16   17 1
    31   16   18 2
    32   17   32 1
    33   17   33 1
    34   19   20 1
    35   19   21 1
    36   19   34 1
    37   20   21 1
    38   20   35 1
    39   20   36 1
    40   21   37 1
    41   21   38 1
@<TRIPOS>SUBSTRUCTURE
     1     LIG1    1   GROUP 1   LIG 1
@<TRIPOS>MOLECULE
50778251
   34    37    1     0     0
SMALL
USER_CHARGES


@<TRIPOS>ATOM
      1 O1         11.6910   -7.8410    2.8220 O.3       1     LIG2    0.0000
      2 C1          7.5880   -6.3470   -0.0810 C.3       1     LIG2    0.0000
      3 C2          7.1630   -7.4510    0.9310 C.3       1     LIG2    0.0000
      4 C3          9.5380   -7.5080    1.7660 C.2       1     LIG2    0.0000
      5 C4          8.2270   -7.9740    1.8220 C.2       1     LIG2    0.0000
      6 C5          8.0690   -8.9630    2.7980 C.2       1     LIG2    0.0000
      7 S1          9.5390   -9.3200    3.6460 S.3       1     LIG2    0.0000
      8 C6         10.3680   -8.1360    2.6890 C.2       1     LIG2    0.0000
      9 C7         12.4330   -8.5280    3.7300 C.2       1     LIG2    0.0000
     10 C8          9.0090   -5.9530   -0.0260 C.2       1     LIG2    0.0000
     11 C9          9.9200   -6.5140    0.8570 C.2       1     LIG2    0.0000
     12 S2         11.5080   -5.8470    0.6820 S.3       1     LIG2    0.0000
     13 N1         10.9280   -4.8490   -0.5490 N.2       1     LIG2    0.0000
     14 C10         9.6220   -4.9970   -0.8220 C.2       1     LIG2    0.0000
     15 C11         6.8800   -9.6370    3.1130 C.2       1     LIG2    0.0000
     16 O2          5.8010   -9.4050    2.5250 O.2       1     LIG2    0.0000
     17 N2          6.8770  -10.5680    4.0760 N.am      1     LIG2    0.0000
     18 C12        13.0380   -9.7490    3.3740 C.2       1     LIG2    0.0000
     19 C13        13.8190  -10.4490    4.3110 C.2       1     LIG2    0.0000
     20 C14        14.0010   -9.9280    5.6040 C.2       1     LIG2    0.0000
     21 C15        13.4050   -8.7050    5.9590 C.2       1     LIG2    0.0000
     22 C16        12.6250   -8.0050    5.0220 C.2       1     LIG2    0.0000
     23 H1          6.9790   -5.4610    0.1020 H         1     LIG2    0.0000
     24 H2          7.3710   -6.7040   -1.0890 H         1     LIG2    0.0000
     25 H3          6.7530   -8.2880    0.3620 H         1     LIG2    0.0000
     26 H4          6.3650   -7.0450    1.5550 H         1     LIG2    0.0000
     27 H5          9.1340   -4.4620   -1.5400 H         1     LIG2    0.0000
     28 H6          6.0530  -11.0320    4.2910 H         1     LIG2    0.0000
     29 H7          7.6930  -10.7770    4.5550 H         1     LIG2    0.0000
     30 H8         12.9090  -10.1270    2.4360 H         1     LIG2    0.0000
     31 H9         14.2540  -11.3350    4.0520 H         1     LIG2    0.0000
     32 H10        14.5670  -10.4360    6.2840 H         1     LIG2    0.0000
     33 H11        13.5390   -8.3250    6.8970 H         1     LIG2    0.0000
     34 H12        12.1950   -7.1160    5.2810 H         1     LIG2    0.0000
@<TRIPOS>BOND
     1    1    8 1
     2    1    9 1
     3    2    3 1
     4    2   10 1
     5    2   23 1
     6    2   24 1
     7    3    5 1
     8    3   25 1
     9    3   26 1
    10    4    5 1
    11    4    8 2
    12    4   11 1
    13    5    6 2
    14    6    7 1
    15    6   15 1
    16    7    8 1
    17    9   18 2
    18    9   22 1
    19   10   11 2
    20   10   14 1
    21   11   12 1
    22   12   13 1
    23   13   14 2
    24   14   27 1
    25   15   16 2
    26   15   17 1
    27   17   28 1
    28   17   29 1
    29   18   19 1
    30   18   30 1
    31   19   20 2
    32   19   31 1
    33   20   21 1
    34   20   32 1
    35   21   22 2
    36   21   33 1
    37   22   34 1
@<TRIPOS>SUBSTRUCTURE
     1     LIG2    1   GROUP 1   LIG 1
@<TRIPOS>MOLECULE
50778697
   40    43    1     0     0
SMALL
USER_CHARGES


@<TRIPOS>ATOM
      1 O1         10.7660   -6.3120   -2.5120 O.3       1     LIG3    0.0000
      2 C1          7.6380   -8.6680    0.9740 C.3       1     LIG3    0.0000
      3 C2          8.7850   -9.6280    0.5400 C.3       1     LIG3    0.0000
      4 C3          9.6480   -7.8070   -0.9710 C.2       1     LIG3    0.0000
      5 C4          9.7480   -9.0970   -0.4550 C.2       1     LIG3    0.0000
      6 C5         10.8440   -9.7840   -0.9860 C.2       1     LIG3    0.0000
      7 S1         11.7520   -8.8390   -2.1210 S.3       1     LIG3    0.0000
      8 C6         10.6520   -7.5200   -1.8900 C.2       1     LIG3    0.0000
      9 C7         11.5970   -6.1150   -3.5760 C.2       1     LIG3    0.0000
     10 C8          7.6640   -7.3310    0.3500 C.2       1     LIG3    0.0000
     11 C9          8.6240   -6.9400   -0.5710 C.2       1     LIG3    0.0000
     12 S2          8.3870   -5.3180   -1.1270 S.3       1     LIG3    0.0000
     13 N1          7.0300   -5.2000   -0.1320 N.2       1     LIG3    0.0000
     14 C10         6.7600   -6.3050    0.5810 C.2       1     LIG3    0.0000
     15 C11        11.2300  -11.0970   -0.6790 C.2       1     LIG3    0.0000
     16 O2         10.6020  -11.8070    0.1370 O.2       1     LIG3    0.0000
     17 N2         12.3080  -11.6300   -1.2680 N.am      1     LIG3    0.0000
     18 C12        12.3700   -4.9420   -3.6110 C.2       1     LIG3    0.0000
     19 C13        13.2190   -4.6760   -4.6970 C.2       1     LIG3    0.0000
     20 C14        13.2820   -5.5900   -5.7630 C.2       1     LIG3    0.0000
     21 N3         12.5110   -6.7080   -5.7080 N.2       1     LIG3    0.0000
     22 C15        11.6820   -6.9940   -4.6730 C.2       1     LIG3    0.0000
     23 N4         14.1060   -5.3110   -6.8030 N.am      1     LIG3    0.0000
     24 C16        14.2910   -6.0690   -7.9110 C.2       1     LIG3    0.0000
     25 C17        15.2220   -5.5860   -8.9300 C.3       1     LIG3    0.0000
     26 O3         13.7030   -7.1570   -8.1050 O.2       1     LIG3    0.0000
     27 H1          6.6850   -9.1400    0.7310 H         1     LIG3    0.0000
     28 H2          7.6880   -8.5420    2.0570 H         1     LIG3    0.0000
     29 H3          8.3290  -10.5290    0.1260 H         1     LIG3    0.0000
     30 H4          9.3420   -9.9120    1.4340 H         1     LIG3    0.0000
     31 H5          5.9720   -6.3800    1.2240 H         1     LIG3    0.0000
     32 H6         12.5720  -12.5380   -1.0540 H         1     LIG3    0.0000
     33 H7         12.8210  -11.1120   -1.9070 H         1     LIG3    0.0000
     34 H8         12.3150   -4.2780   -2.8380 H         1     LIG3    0.0000
     35 H9         13.7810   -3.8230   -4.7090 H         1     LIG3    0.0000
     36 H10        11.1190   -7.8450   -4.6980 H         1     LIG3    0.0000
     37 H11        14.6130   -4.4860   -6.7520 H         1     LIG3    0.0000
     38 H12        15.2710   -6.2940   -9.7580 H         1     LIG3    0.0000
     39 H13        14.8830   -4.6210   -9.3050 H         1     LIG3    0.0000
     40 H14        16.2150   -5.4770   -8.4940 H         1     LIG3    0.0000
@<TRIPOS>BOND
     1    1    8 1
     2    1    9 1
     3    2    3 1
     4    2   10 1
     5    2   27 1
     6    2   28 1
     7    3    5 1
     8    3   29 1
     9    3   30 1
    10    4    5 1
    11    4    8 2
    12    4   11 1
    13    5    6 2
    14    6    7 1
    15    6   15 1
    16    7    8 1
    17    9   18 2
    18    9   22 1
    19   10   11 2
    20   10   14 1
    21   11   12 1
    22   12   13 1
    23   13   14 2
    24   14   31 1
    25   15   16 2
    26   15   17 1
    27   17   32 1
    28   17   33 1
    29   18   19 1
    30   18   34 1
    31   19   20 2
    32   19   35 1
    33   20   21 1
    34   20   23 1
    35   21   22 2
    36   22   36 1
    37   23   24 1
    38   23   37 1
    39   24   25 1
    40   24   26 2
    41   25   38 1
    42   25   39 1
    43   25   40 1
@<TRIPOS>SUBSTRUCTURE
     1     LIG3    1   GROUP 1   LIG 1
@<TRIPOS>MOLECULE
50778253
   36    39    1     0     0
SMALL
USER_CHARGES


@<TRIPOS>ATOM
      1 O1          8.5930   -6.9550   -3.9800 O.3       1     LIG4    0.0000
      2 C1          6.3070   -8.2630    0.5520 C.3       1     LIG4    0.0000
      3 C2          7.7750   -7.8050    0.7980 C.3       1     LIG4    0.0000
      4 C3          8.0050   -7.4360   -1.6820 C.2       1     LIG4    0.0000
      5 C4          8.5510   -7.4070   -0.4020 C.2       1     LIG4    0.0000
      6 C5          9.8780   -6.9660   -0.4140 C.2       1     LIG4    0.0000
      7 S1         10.4530   -6.5860   -2.0050 S.3       1     LIG4    0.0000
      8 C6          8.9070   -7.0210   -2.6560 C.2       1     LIG4    0.0000
      9 C7          9.5310   -6.5160   -4.8610 C.2       1     LIG4    0.0000
     10 C8          5.8660   -8.2400   -0.8560 C.2       1     LIG4    0.0000
     11 C9          6.6850   -7.8450   -1.9030 C.2       1     LIG4    0.0000
     12 S2          5.8850   -7.9260   -3.4360 S.3       1     LIG4    0.0000
     13 N1          4.4950   -8.4790   -2.6560 N.2       1     LIG4    0.0000
     14 C10         4.6110   -8.6000   -1.3240 C.2       1     LIG4    0.0000
     15 C11        10.7150   -6.8210    0.7030 C.2       1     LIG4    0.0000
     16 O2         10.3350   -7.0850    1.8650 O.2       1     LIG4    0.0000
     17 N2         11.9720   -6.3860    0.5420 N.am      1     LIG4    0.0000
     18 C12        10.4500   -7.4170   -5.4280 C.2       1     LIG4    0.0000
     19 C13        11.4060   -6.9690   -6.3530 C.2       1     LIG4    0.0000
     20 C14        11.4230   -5.6110   -6.7050 C.2       1     LIG4    0.0000
     21 N3         10.5210   -4.7630   -6.1500 N.2       1     LIG4    0.0000
     22 C15         9.5830   -5.1620   -5.2520 C.2       1     LIG4    0.0000
     23 C16         8.6420   -4.1790   -4.7050 C.3       1     LIG4    0.0000
     24 H1          6.1980   -9.2810    0.9290 H         1     LIG4    0.0000
     25 H2          5.6450   -7.6150    1.1290 H         1     LIG4    0.0000
     26 H3          8.3040   -8.6230    1.2900 H         1     LIG4    0.0000
     27 H4          7.7520   -6.9570    1.4840 H         1     LIG4    0.0000
     28 H5          3.8540   -8.9220   -0.7210 H         1     LIG4    0.0000
     29 H6         12.5470   -6.2870    1.3160 H         1     LIG4    0.0000
     30 H7         12.3040   -6.1710   -0.3430 H         1     LIG4    0.0000
     31 H8         10.4210   -8.4030   -5.1660 H         1     LIG4    0.0000
     32 H9         12.0750   -7.6200   -6.7640 H         1     LIG4    0.0000
     33 H10        12.1080   -5.2620   -7.3750 H         1     LIG4    0.0000
     34 H11         8.8360   -3.1960   -5.1350 H         1     LIG4    0.0000
     35 H12         7.6210   -4.4760   -4.9430 H         1     LIG4    0.0000
     36 H13         8.7580   -4.1220   -3.6220 H         1     LIG4    0.0000
@<TRIPOS>BOND
     1    1    8 1
     2    1    9 1
     3    2    3 1
     4    2   10 1
     5    2   24 1
     6    2   25 1
     7    3    5 1
     8    3   26 1
     9    3   27 1
    10    4    5 1
    11    4    8 2
    12    4   11 1
    13    5    6 2
    14    6    7 1
    15    6   15 1
    16    7    8 1
    17    9   18 2
    18    9   22 1
    19   10   11 2
    20   10   14 1
    21   11   12 1
    22   12   13 1
    23   13   14 2
    24   14   28 1
    25   15   16 2
    26   15   17 1
    27   17   29 1
    28   17   30 1
    29   18   19 1
    30   18   31 1
    31   19   20 2
    32   19   32 1
    33   20   21 1
    34   20   33 1
    35   21   22 2
    36   22   23 1
    37   23   34 1
    38   23   35 1
    39   23   36 1
@<TRIPOS>SUBSTRUCTURE
     1     LIG4    1   GROUP 1   LIG 1
@<TRIPOS>MOLECULE
692698
   44    47    1     0     0
SMALL
USER_CHARGES


@<TRIPOS>ATOM
      1 C1         -1.8500    2.3240    0.6560 C.2       1     LIG5    0.0000
      2 C2         -0.8080    1.4030    0.8480 C.2       1     LIG5    0.0000
      3 C3          0.5240    1.7570    0.5140 C.2       1     LIG5    0.0000
      4 C4          0.7550    3.0640    0.0290 C.2       1     LIG5    0.0000
      5 C5         -0.3190    3.9530   -0.1400 C.2       1     LIG5    0.0000
      6 N1         -1.5760    3.5590    0.1730 N.2       1     LIG5    0.0000
      7 O1         -1.1190    0.1590    1.3250 O.3       1     LIG5    0.0000
      8 C6         -0.1320   -0.7210    1.9010 C.3       1     LIG5    0.0000
      9 C7          1.2250   -0.4010    1.4010 C.2       1     LIG5    0.0000
     10 C8          1.5410    0.7760    0.7250 C.2       1     LIG5    0.0000
     11 C9          2.3920   -1.1210    1.5670 C.2       1     LIG5    0.0000
     12 C10         3.4120   -0.4010    0.9560 C.2       1     LIG5    0.0000
     13 N2          2.8710    0.7290    0.4220 N.pl3     1     LIG5    0.0000
     14 C11        -0.1690   -0.5660    3.4380 C.3       1     LIG5    0.0000
     15 C12        -1.5570   -0.9210    3.9960 C.3       1     LIG5    0.0000
     16 C13        -1.9410   -2.3550    3.6060 C.3       1     LIG5    0.0000
     17 C14        -1.9210   -2.5190    2.0790 C.3       1     LIG5    0.0000
     18 C15        -0.5330   -2.1640    1.5200 C.3       1     LIG5    0.0000
     19 C16         3.5990    1.6650   -0.3810 C.3       1     LIG5    0.0000
     20 C17         4.2640    2.7400    0.4920 C.3       1     LIG5    0.0000
     21 C18         4.7580   -0.8330    0.9420 C.2       1     LIG5    0.0000
     22 N3          5.1310   -1.9940    1.5040 N.am      1     LIG5    0.0000
     23 O2          5.6700   -0.1520    0.4260 O.2       1     LIG5    0.0000
     24 H1         -2.8100    2.0660    0.8820 H         1     LIG5    0.0000
     25 H2          1.6880    3.4020   -0.1820 H         1     LIG5    0.0000
     26 H3         -0.1530    4.8960   -0.4910 H         1     LIG5    0.0000
     27 H4          2.4810   -2.0120    2.0570 H         1     LIG5    0.0000
     28 H5          0.5700   -1.2240    3.8980 H         1     LIG5    0.0000
     29 H6          0.0610    0.4660    3.7090 H         1     LIG5    0.0000
     30 H7         -1.5400   -0.8360    5.0830 H         1     LIG5    0.0000
     31 H8         -2.2980   -0.2250    3.5990 H         1     LIG5    0.0000
     32 H9         -2.9430   -2.5740    3.9780 H         1     LIG5    0.0000
     33 H10        -1.2350   -3.0550    4.0550 H         1     LIG5    0.0000
     34 H11        -2.1570   -3.5520    1.8250 H         1     LIG5    0.0000
     35 H12        -2.6720   -1.8650    1.6330 H         1     LIG5    0.0000
     36 H13        -0.5570   -2.2610    0.4340 H         1     LIG5    0.0000
     37 H14         0.1920   -2.8740    1.9220 H         1     LIG5    0.0000
     38 H15         4.3720    1.1580   -0.9570 H         1     LIG5    0.0000
     39 H16         2.9520    2.1260   -1.1240 H         1     LIG5    0.0000
     40 H17         4.7540    3.4740   -0.1470 H         1     LIG5    0.0000
     41 H18         3.5180    3.2410    1.1080 H         1     LIG5    0.0000
     42 H19         5.0070    2.2770    1.1410 H         1     LIG5    0.0000
     43 H20         6.0640   -2.2570    1.4830 H         1     LIG5    0.0000
     44 H21         4.4740   -2.5650    1.9280 H         1     LIG5    0.0000
@<TRIPOS>BOND
     1    1    2 2
     2    1    6 1
     3    1   24 1
     4    2    3 1
     5    2    7 1
     6    3    4 2
     7    3   10 1
     8    4    5 1
     9    4   25 1
    10    5    6 2
    11    5   26 1
    12    7    8 1
    13    8    9 1
    14    8   14 1
    15    8   18 1
    16    9   10 2
    17    9   11 1
    18   10   13 1
    19   11   12 2
    20   11   27 1
    21   12   13 1
    22   12   21 1
    23   13   19 1
    24   14   15 1
    25   14   28 1
    26   14   29 1
    27   15   16 1
    28   15   30 1
    29   15   31 1
    30   16   17 1
    31   16   32 1
    32   16   33 1
    33   17   18 1
    34   17   34 1
    35   17   35 1
    36   18   36 1
    37   18   37 1
    38   19   20 1
    39   19   38 1
    40   19   39 1
    41   20   40 1
    42   20   41 1
    43   20   42 1
    44   21   22 1
    45   21   23 2
    46   22   43 1
    47   22   44 1
@<TRIPOS>SUBSTRUCTURE
     1     LIG5    1   GROUP 1   LIG 1
@<TRIPOS>MOLECULE
692696
   38    41    1     0     0
SMALL
USER_CHARGES


@<TRIPOS>ATOM
      1 C1         -1.6390    1.2170    0.4310 C.2       1     LIG6    0.0000
      2 C2         -0.5840    0.3210    0.1990 C.2       1     LIG6    0.0000
      3 C3          0.7390    0.6700    0.5780 C.2       1     LIG6    0.0000
      4 C4          0.9460    1.9480    1.1430 C.2       1     LIG6    0.0000
      5 C5         -0.1410    2.8130    1.3450 C.2       1     LIG6    0.0000
      6 N1         -1.3880    2.4240    0.9900 N.2       1     LIG6    0.0000
      7 O1         -0.8720   -0.8970   -0.3570 O.3       1     LIG6    0.0000
      8 C6          0.1430   -1.7180   -0.9670 C.3       1     LIG6    0.0000
      9 C7          1.4820   -1.4240   -0.4190 C.2       1     LIG6    0.0000
     10 C8          1.7720   -0.2860    0.3290 C.2       1     LIG6    0.0000
     11 C9          2.6540   -2.1310   -0.5970 C.2       1     LIG6    0.0000
     12 C10         3.6560   -1.4370    0.0720 C.2       1     LIG6    0.0000
     13 N2          3.0960   -0.3400    0.6560 N.pl3     1     LIG6    0.0000
     14 C11         3.7980    0.5520    1.5300 C.3       1     LIG6    0.0000
     15 C12         4.4720    1.6840    0.7360 C.3       1     LIG6    0.0000
     16 C13         5.0060   -1.8550    0.0870 C.2       1     LIG6    0.0000
     17 N3          5.4020   -2.9820   -0.5250 N.am      1     LIG6    0.0000
     18 O2          5.8990   -1.1890    0.6510 O.2       1     LIG6    0.0000
     19 C14        -0.3270   -3.1810   -0.9830 C.3       1     LIG6    0.0000
     20 C15        -0.6140   -3.0830   -2.4840 C.3       1     LIG6    0.0000
     21 C16         0.0260   -1.6920   -2.4990 C.3       1     LIG6    0.0000
     22 F1          5.0250    2.5970    1.5980 F         1     LIG6    0.0000
     23 H1         -2.5940    0.9620    0.1760 H         1     LIG6    0.0000
     24 H2          1.8720    2.2830    1.3890 H         1     LIG6    0.0000
     25 H3          0.0080    3.7370    1.7520 H         1     LIG6    0.0000
     26 H4          2.7580   -2.9930   -1.1330 H         1     LIG6    0.0000
     27 H5          3.1280    0.9590    2.2840 H         1     LIG6    0.0000
     28 H6          4.5620    0.0150    2.0920 H         1     LIG6    0.0000
     29 H7          5.2570    1.2710    0.1030 H         1     LIG6    0.0000
     30 H8          3.7380    2.1870    0.1060 H         1     LIG6    0.0000
     31 H9          6.3380   -3.2350   -0.5020 H         1     LIG6    0.0000
     32 H10         4.7600   -3.5400   -0.9880 H         1     LIG6    0.0000
     33 H11        -1.1990   -3.3980   -0.3660 H         1     LIG6    0.0000
     34 H12         0.4250   -3.9320   -0.7360 H         1     LIG6    0.0000
     35 H13        -0.1210   -3.8320   -3.1040 H         1     LIG6    0.0000
     36 H14        -1.6750   -3.0870   -2.7340 H         1     LIG6    0.0000
     37 H15         0.9660   -1.6590   -3.0520 H         1     LIG6    0.0000
     38 H16        -0.6060   -0.9020   -2.9050 H         1     LIG6    0.0000
@<TRIPOS>BOND
     1    1    2 2
     2    1    6 1
     3    1   23 1
     4    2    3 1
     5    2    7 1
     6    3    4 2
     7    3   10 1
     8    4    5 1
     9    4   24 1
    10    5    6 2
    11    5   25 1
    12    7    8 1
    13    8    9 1
    14    8   19 1
    15    8   21 1
    16    9   10 2
    17    9   11 1
    18   10   13 1
    19   11   12 2
    20   11   26 1
    21   12   13 1
    22   12   16 1
    23   13   14 1
    24   14   15 1
    25   14   27 1
    26   14   28 1
    27   15   22 1
    28   15   29 1
    29   15   30 1
    30   16   17 1
    31   16   18 2
    32   17   31 1
    33   17   32 1
    34   19   20 1
    35   19   33 1
    36   19   34 1
    37   20   21 1
    38   20   35 1
    39   20   36 1
    40   21   37 1
    41   21   38 1
@<TRIPOS>SUBSTRUCTURE
     1     LIG6    1   GROUP 1   LIG 1
@<TRIPOS>MOLECULE
50778200
   37    40    1     0     0
SMALL
USER_CHARGES


@<TRIPOS>ATOM
      1 O1          5.9120  -14.0180   -1.5230 O.3       1     LIG7    0.0000
      2 C1          7.0620   -9.4870    0.8500 C.3       1     LIG7    0.0000
      3 C2          8.3660  -10.2070    0.3970 C.3       1     LIG7    0.0000
      4 C3          6.9410  -12.0660   -0.5290 C.2       1     LIG7    0.0000
      5 C4          8.1960  -11.5090   -0.2930 C.2       1     LIG7    0.0000
      6 C5          9.2240  -12.3220   -0.7790 C.2       1     LIG7    0.0000
      7 S1          8.6440  -13.7760   -1.5250 S.3       1     LIG7    0.0000
      8 C6          7.0150  -13.2840   -1.1960 C.2       1     LIG7    0.0000
      9 C7          5.9490  -15.0510   -2.4150 C.2       1     LIG7    0.0000
     10 C8          5.8070  -10.1970    0.5350 C.2       1     LIG7    0.0000
     11 C9          5.7690  -11.4190   -0.1200 C.2       1     LIG7    0.0000
     12 S2          4.1530  -11.9980   -0.3460 S.3       1     LIG7    0.0000
     13 N1          3.5730  -10.6160    0.4280 N.2       1     LIG7    0.0000
     14 C10         4.5250   -9.7620    0.8360 C.2       1     LIG7    0.0000
     15 C11        10.6000  -12.0540   -0.7060 C.2       1     LIG7    0.0000
     16 O2         11.0530  -11.0160   -0.1760 O.2       1     LIG7    0.0000
     17 N2         11.4780  -12.9260   -1.2170 N.am      1     LIG7    0.0000
     18 C12         6.6620  -15.0130   -3.6300 C.2       1     LIG7    0.0000
     19 C13         6.6250  -16.1020   -4.5160 C.2       1     LIG7    0.0000
     20 C14         5.8520  -17.2340   -4.1880 C.2       1     LIG7    0.0000
     21 N3          5.1640  -17.2300   -3.0140 N.2       1     LIG7    0.0000
     22 C15         5.1840  -16.1950   -2.1370 C.2       1     LIG7    0.0000
     23 C16         5.7690  -18.3520   -5.0400 C.2       1     LIG7    0.0000
     24 N4          4.9940  -19.4000   -4.7210 N.am      1     LIG7    0.0000
     25 O3          6.4040  -18.4130   -6.1170 O.2       1     LIG7    0.0000
     26 H1          7.1100   -9.3390    1.9300 H         1     LIG7    0.0000
     27 H2          7.0290   -8.5060    0.3740 H         1     LIG7    0.0000
     28 H3          8.9850  -10.3680    1.2810 H         1     LIG7    0.0000
     29 H4          8.9050   -9.5350   -0.2740 H         1     LIG7    0.0000
     30 H5          4.3250   -8.8850    1.3180 H         1     LIG7    0.0000
     31 H6         12.4270  -12.7360   -1.1660 H         1     LIG7    0.0000
     32 H7         11.1670  -13.7420   -1.6370 H         1     LIG7    0.0000
     33 H8          7.2060  -14.1870   -3.8770 H         1     LIG7    0.0000
     34 H9          7.1500  -16.0610   -5.3910 H         1     LIG7    0.0000
     35 H10         4.6430  -16.2510   -1.2740 H         1     LIG7    0.0000
     36 H11         4.9440  -20.1620   -5.3160 H         1     LIG7    0.0000
     37 H12         4.4860  -19.3870   -3.8950 H         1     LIG7    0.0000
@<TRIPOS>BOND
     1    1    8 1
     2    1    9 1
     3    2    3 1
     4    2   10 1
     5    2   26 1
     6    2   27 1
     7    3    5 1
     8    3   28 1
     9    3   29 1
    10    4    5 1
    11    4    8 2
    12    4   11 1
    13    5    6 2
    14    6    7 1
    15    6   15 1
    16    7    8 1
    17    9   18 2
    18    9   22 1
    19   10   11 2
    20   10   14 1
    21   11   12 1
    22   12   13 1
    23   13   14 2
    24   14   30 1
    25   15   16 2
    26   15   17 1
    27   17   31 1
    28   17   32 1
    29   18   19 1
    30   18   33 1
    31   19   20 2
    32   19   34 1
    33   20   21 1
    34   20   23 1
    35   21   22 2
    36   22   35 1
    37   23   24 1
    38   23   25 2
    39   24   36 1
    40   24   37 1
@<TRIPOS>SUBSTRUCTURE
     1     LIG7    1   GROUP 1   LIG 1
@<TRIPOS>MOLECULE
50778207
   47    50    1     0     0
SMALL
USER_CHARGES


@<TRIPOS>ATOM
      1 O1         11.2560  -13.1660    3.2390 O.3       1     LIG8    0.0000
      2 C1          7.6590  -11.0690    0.0550 C.3       1     LIG8    0.0000
      3 C2          8.5190   -9.9500    0.7110 C.3       1     LIG8    0.0000
      4 C3          9.8160  -11.7430    1.9130 C.2       1     LIG8    0.0000
      5 C4          9.5850  -10.3970    1.6410 C.2       1     LIG8    0.0000
      6 C5         10.4640   -9.5660    2.3430 C.2       1     LIG8    0.0000
      7 S1         11.5730  -10.4450    3.3440 S.3       1     LIG8    0.0000
      8 C6         10.8630  -11.9330    2.8100 C.2       1     LIG8    0.0000
      9 C7         12.3950  -13.3510    3.9650 C.2       1     LIG8    0.0000
     10 C8          8.0190  -12.4480    0.4380 C.2       1     LIG8    0.0000
     11 C9          9.0450  -12.7490    1.3200 C.2       1     LIG8    0.0000
     12 S2          9.2240  -14.4530    1.5700 S.3       1     LIG8    0.0000
     13 N1          7.9420  -14.7210    0.5080 N.2       1     LIG8    0.0000
     14 C10         7.4030  -13.6070   -0.0120 C.2       1     LIG8    0.0000
     15 C11        10.5000   -8.1640    2.2950 C.2       1     LIG8    0.0000
     16 O2          9.7160   -7.4980    1.5850 O.2       1     LIG8    0.0000
     17 N2         11.3980   -7.4950    3.0280 N.am      1     LIG8    0.0000
     18 C12        12.3400  -14.1810    5.0970 C.2       1     LIG8    0.0000
     19 C13        13.4890  -14.4230    5.8660 C.2       1     LIG8    0.0000
     20 C14        14.7120  -13.8340    5.4860 C.2       1     LIG8    0.0000
     21 N3         14.7350  -13.0490    4.3750 N.2       1     LIG8    0.0000
     22 C15        13.6410  -12.7970    3.6130 C.2       1     LIG8    0.0000
     23 C16        15.9000  -14.0340    6.2170 C.2       1     LIG8    0.0000
     24 N4         17.0410  -13.4330    5.8150 N.am      1     LIG8    0.0000
     25 O3         15.9170  -14.7580    7.2410 O.2       1     LIG8    0.0000
     26 C17        18.2780  -13.5830    6.4920 C.3       1     LIG8    0.0000
     27 C18        19.3570  -12.7420    5.7980 C.3       1     LIG8    0.0000
     28 O4         19.4980  -13.1600    4.4430 O.3       1     LIG8    0.0000
     29 C19        20.4550  -12.4600    3.6540 C.3       1     LIG8    0.0000
     30 H1          7.7500  -10.9800   -1.0290 H         1     LIG8    0.0000
     31 H2          6.6150  -10.9010    0.3220 H         1     LIG8    0.0000
     32 H3          7.8460   -9.2870    1.2580 H         1     LIG8    0.0000
     33 H4          8.9860   -9.3710   -0.0880 H         1     LIG8    0.0000
     34 H5          6.6220  -13.6130   -0.6680 H         1     LIG8    0.0000
     35 H6         11.4200   -6.5270    2.9920 H         1     LIG8    0.0000
     36 H7         12.0230   -7.9760    3.5920 H         1     LIG8    0.0000
     37 H8         11.4540  -14.6090    5.3670 H         1     LIG8    0.0000
     38 H9         13.4300  -15.0240    6.6900 H         1     LIG8    0.0000
     39 H10        13.7280  -12.2080    2.7840 H         1     LIG8    0.0000
     40 H11        17.0100  -12.8790    5.0190 H         1     LIG8    0.0000
     41 H12        18.1780  -13.2470    7.5260 H         1     LIG8    0.0000
     42 H13        18.5810  -14.6310    6.4820 H         1     LIG8    0.0000
     43 H14        19.0730  -11.6890    5.8330 H         1     LIG8    0.0000
     44 H15        20.3040  -12.8750    6.3230 H         1     LIG8    0.0000
     45 H16        20.4660  -12.8800    2.6490 H         1     LIG8    0.0000
     46 H17        20.1890  -11.4040    3.5990 H         1     LIG8    0.0000
     47 H18        21.4470  -12.5630    4.0960 H         1     LIG8    0.0000
@<TRIPOS>BOND
     1    1    8 1
     2    1    9 1
     3    2    3 1
     4    2   10 1
     5    2   30 1
     6    2   31 1
     7    3    5 1
     8    3   32 1
     9    3   33 1
    10    4    5 1
    11    4    8 2
    12    4   11 1
    13    5    6 2
    14    6    7 1
    15    6   15 1
    16    7    8 1
    17    9   18 2
    18    9   22 1
    19   10   11 2
    20   10   14 1
    21   11   12 1
    22   12   13 1
    23   13   14 2
    24   14   34 1
    25   15   16 2
    26   15   17 1
    27   17   35 1
    28   17   36 1
    29   18   19 1
    30   18   37 1
    31   19   20 2
    32   19   38 1
    33   20   21 1
    34   20   23 1
    35   21   22 2
    36   22   39 1
    37   23   24 1
    38   23   25 2
    39   24   26 1
    40   24   40 1
    41   26   27 1
    42   26   41 1
    43   26   42 1
    44   27   28 1
    45   27   43 1
    46   27   44 1
    47   28   29 1
    48   29   45 1
    49   29   46 1
    50   29   47 1
@<TRIPOS>SUBSTRUCTURE
     1     LIG8    1   GROUP 1   LIG 1
@<TRIPOS>MOLECULE
50778201
   40    43    1     0     0
SMALL
USER_CHARGES


@<TRIPOS>ATOM
      1 O1         11.4540  -13.2210    2.8710 O.3       1     LIG9    0.0000
      2 C1          7.4380  -11.1620    0.1970 C.3       1     LIG9    0.0000
      3 C2          8.2490  -10.0390    0.9060 C.3       1     LIG9    0.0000
      4 C3          9.7830  -11.8150    1.8210 C.2       1     LIG9    0.0000
      5 C4          9.4220  -10.4750    1.7030 C.2       1     LIG9    0.0000
      6 C5         10.2880   -9.6390    2.4150 C.2       1     LIG9    0.0000
      7 S1         11.5510  -10.5050    3.2270 S.3       1     LIG9    0.0000
      8 C6         10.9070  -11.9960    2.6210 C.2       1     LIG9    0.0000
      9 C7         12.3900  -13.4110    3.8450 C.2       1     LIG9    0.0000
     10 C8          7.9410  -12.5330    0.4070 C.2       1     LIG9    0.0000
     11 C9          9.0540  -12.8250    1.1820 C.2       1     LIG9    0.0000
     12 S2          9.3920  -14.5220    1.2410 S.3       1     LIG9    0.0000
     13 N1          8.0630  -14.7990    0.2410 N.2       1     LIG9    0.0000
     14 C10         7.3940  -13.6930   -0.1210 C.2       1     LIG9    0.0000
     15 C11        10.2070   -8.2410    2.5050 C.2       1     LIG9    0.0000
     16 O2          9.3130   -7.5830    1.9310 O.2       1     LIG9    0.0000
     17 N2         11.1110   -7.5680    3.2280 N.am      1     LIG9    0.0000
     18 C12        12.2770  -12.8840    5.1470 C.2       1     LIG9    0.0000
     19 C13        13.2660  -13.1370    6.1110 C.2       1     LIG9    0.0000
     20 C14        14.3740  -13.9390    5.7710 C.2       1     LIG9    0.0000
     21 N3         14.4420  -14.4470    4.5100 N.2       1     LIG9    0.0000
     22 C15        13.5030  -14.2180    3.5570 C.2       1     LIG9    0.0000
     23 C16        15.3990  -14.2290    6.6940 C.2       1     LIG9    0.0000
     24 N4         16.4330  -15.0160    6.3210 N.am      1     LIG9    0.0000
     25 O3         15.3690  -13.7660    7.8590 O.2       1     LIG9    0.0000
     26 C17        17.5010  -15.3540    7.1910 C.3       1     LIG9    0.0000
     27 H1          7.4360  -10.9590   -0.8750 H         1     LIG9    0.0000
     28 H2          6.4070  -11.1180    0.5520 H         1     LIG9    0.0000
     29 H3          7.5690   -9.5000    1.5680 H         1     LIG9    0.0000
     30 H4          8.5970   -9.3420    0.1420 H         1     LIG9    0.0000
     31 H5          6.5700  -13.7050   -0.7230 H         1     LIG9    0.0000
     32 H6         11.0520   -6.6020    3.2900 H         1     LIG9    0.0000
     33 H7         11.8200   -8.0430    3.6880 H         1     LIG9    0.0000
     34 H8         11.4680  -12.3150    5.3970 H         1     LIG9    0.0000
     35 H9         13.1720  -12.7420    7.0480 H         1     LIG9    0.0000
     36 H10        13.6090  -14.6310    2.6300 H         1     LIG9    0.0000
     37 H11        16.4380  -15.3630    5.4150 H         1     LIG9    0.0000
     38 H12        18.2050  -15.9950    6.6600 H         1     LIG9    0.0000
     39 H13        18.0180  -14.4500    7.5170 H         1     LIG9    0.0000
     40 H14        17.1190  -15.8870    8.0620 H         1     LIG9    0.0000
@<TRIPOS>BOND
     1    1    8 1
     2    1    9 1
     3    2    3 1
     4    2   10 1
     5    2   27 1
     6    2   28 1
     7    3    5 1
     8    3   29 1
     9    3   30 1
    10    4    5 1
    11    4    8 2
    12    4   11 1
    13    5    6 2
    14    6    7 1
    15    6   15 1
    16    7    8 1
    17    9   18 2
    18    9   22 1
    19   10   11 2
    20   10   14 1
    21   11   12 1
    22   12   13 1
    23   13   14 2
    24   14   31 1
    25   15   16 2
    26   15   17 1
    27   17   32 1
    28   17   33 1
    29   18   19 1
    30   18   34 1
    31   19   20 2
    32   19   35 1
    33   20   21 1
    34   20   23 1
    35   21   22 2
    36   22   36 1
    37   23   24 1
    38   23   25 2
    39   24   26 1
    40   24   37 1
    41   26   38 1
    42   26   39 1
    43   26   40 1
@<TRIPOS>SUBSTRUCTURE
     1     LIG9    1   GROUP 1   LIG 1
@<TRIPOS>MOLECULE
692606
   37    39    1     0     0
SMALL
USER_CHARGES


@<TRIPOS>ATOM
      1 C1         -0.4680    1.0760   -0.7660 C.2       1    LIG10    0.0000
      2 C2         -1.4780    1.0790    0.2310 C.2       1    LIG10    0.0000
      3 O1          0.1680   -0.0760   -1.1420 O.3       1    LIG10    0.0000
      4 C3         -0.3680   -1.3830   -0.8570 C.3       1    LIG10    0.0000
      5 C4         -1.3110   -1.3510    0.2830 C.2       1    LIG10    0.0000
      6 C5         -1.8320   -0.1750    0.8190 C.2       1    LIG10    0.0000
      7 C6         -1.8820   -2.4150    0.9540 C.2       1    LIG10    0.0000
      8 C7         -2.7230   -1.8840    1.9260 C.2       1    LIG10    0.0000
      9 N1         -2.6530   -0.5260    1.8510 N.pl3     1    LIG10    0.0000
     10 C8         -3.4920   -2.6850    2.8010 C.2       1    LIG10    0.0000
     11 O2         -4.2740   -2.1900    3.6410 O.2       1    LIG10    0.0000
     12 N2         -3.4370   -4.0260    2.7620 N.am      1    LIG10    0.0000
     13 C9         -2.0860    2.3140    0.5470 C.2       1    LIG10    0.0000
     14 C10        -1.6630    3.4910   -0.0890 C.2       1    LIG10    0.0000
     15 N3         -0.6770    3.4410   -1.0150 N.2       1    LIG10    0.0000
     16 C11        -0.0730    2.2810   -1.3680 C.2       1    LIG10    0.0000
     17 C12         0.8380   -2.2920   -0.5550 C.3       1    LIG10    0.0000
     18 C13        -1.0820   -1.8910   -2.1230 C.3       1    LIG10    0.0000
     19 C14        -3.2930    0.3620    2.7760 C.3       1    LIG10    0.0000
     20 C15        -4.7230    0.6980    2.3240 C.3       1    LIG10    0.0000
     21 H1         -1.7160   -3.4030    0.7620 H         1    LIG10    0.0000
     22 H2         -3.9820   -4.5450    3.3730 H         1    LIG10    0.0000
     23 H3         -2.8560   -4.4740    2.1290 H         1    LIG10    0.0000
     24 H4         -2.8510    2.3810    1.2100 H         1    LIG10    0.0000
     25 H5         -2.1030    4.3830    0.1390 H         1    LIG10    0.0000
     26 H6          0.6650    2.2850   -2.0720 H         1    LIG10    0.0000
     27 H7          0.5110   -3.3200   -0.3950 H         1    LIG10    0.0000
     28 H8          1.5300   -2.2690   -1.3980 H         1    LIG10    0.0000
     29 H9          1.3590   -1.9370    0.3350 H         1    LIG10    0.0000
     30 H10        -1.4480   -2.9080   -1.9710 H         1    LIG10    0.0000
     31 H11        -1.9220   -1.2390   -2.3650 H         1    LIG10    0.0000
     32 H12        -0.3830   -1.8880   -2.9600 H         1    LIG10    0.0000
     33 H13        -3.3380   -0.0850    3.7680 H         1    LIG10    0.0000
     34 H14        -2.7140    1.2740    2.9040 H         1    LIG10    0.0000
     35 H15        -5.1580    1.4240    3.0100 H         1    LIG10    0.0000
     36 H16        -4.7130    1.1140    1.3170 H         1    LIG10    0.0000
     37 H17        -5.3320   -0.2060    2.3290 H         1    LIG10    0.0000
@<TRIPOS>BOND
     1    1    2 1
     2    1    3 1
     3    1   16 2
     4    2    6 1
     5    2   13 2
     6    3    4 1
     7    4    5 1
     8    4   17 1
     9    4   18 1
    10    5    6 2
    11    5    7 1
    12    6    9 1
    13    7    8 2
    14    7   21 1
    15    8    9 1
    16    8   10 1
    17    9   19 1
    18   10   11 2
    19   10   12 1
    20   12   22 1
    21   12   23 1
    22   13   14 1
    23   13   24 1
    24   14   15 2
    25   14   25 1
    26   15   16 1
    27   16   26 1
    28   17   27 1
    29   17   28 1
    30   17   29 1
    31   18   30 1
    32   18   31 1
    33   18   32 1
    34   19   20 1
    35   19   33 1
    36   19   34 1
    37   20   35 1
    38   20   36 1
    39   20   37 1
@<TRIPOS>SUBSTRUCTURE
     1    LIG10    1   GROUP 1   LIG 1
@<TRIPOS>MOLECULE
50778257
   35    38    1     0     0
SMALL
USER_CHARGES


@<TRIPOS>ATOM
      1 O1         11.4380  -11.2730   -3.6520 O.3       1    LIG11    0.0000
      2 C1          9.4850  -10.3460    1.1220 C.3       1    LIG11    0.0000
      3 C2          9.2660   -9.1120    0.1980 C.3       1    LIG11    0.0000
      4 C3         10.4080  -10.3790   -1.6540 C.2       1    LIG11    0.0000
      5 C4          9.7720   -9.2300   -1.1920 C.2       1    LIG11    0.0000
      6 C5          9.6840   -8.2500   -2.1850 C.2       1    LIG11    0.0000
      7 S1         10.3890   -8.7440   -3.6900 S.3       1    LIG11    0.0000
      8 C6         10.8000  -10.2730   -2.9840 C.2       1    LIG11    0.0000
      9 C7         11.8060  -11.0750   -4.9440 C.2       1    LIG11    0.0000
     10 C8         10.1720  -11.4910    0.4940 C.2       1    LIG11    0.0000
     11 C9         10.6030  -11.4890   -0.8240 C.2       1    LIG11    0.0000
     12 S2         11.3740  -12.9740   -1.2700 S.3       1    LIG11    0.0000
     13 N1         11.1070  -13.5550    0.2910 N.2       1    LIG11    0.0000
     14 C10        10.4780  -12.6960    1.1080 C.2       1    LIG11    0.0000
     15 C11         9.1030   -6.9800   -2.0490 C.2       1    LIG11    0.0000
     16 O2          8.5860   -6.5900   -0.9790 O.2       1    LIG11    0.0000
     17 N2          9.0900   -6.1370   -3.0900 N.am      1    LIG11    0.0000
     18 C12        13.0650  -10.5320   -5.2570 C.2       1    LIG11    0.0000
     19 C13        13.4450  -10.3480   -6.5970 C.2       1    LIG11    0.0000
     20 C14        12.5490  -10.7210   -7.6120 C.2       1    LIG11    0.0000
     21 N3         11.3440  -11.2510   -7.2850 N.2       1    LIG11    0.0000
     22 C15        10.9510  -11.4400   -5.9990 C.2       1    LIG11    0.0000
     23 N4         12.8680  -10.5630   -8.9030 N.pl3     1    LIG11    0.0000
     24 H1          8.5110  -10.6850    1.4780 H         1    LIG11    0.0000
     25 H2         10.0700  -10.0280    1.9860 H         1    LIG11    0.0000
     26 H3          9.7510   -8.2530    0.6650 H         1    LIG11    0.0000
     27 H4          8.1940   -8.9110    0.1550 H         1    LIG11    0.0000
     28 H5         10.2500  -12.9080    2.0800 H         1    LIG11    0.0000
     29 H6          8.6870   -5.2610   -2.9910 H         1    LIG11    0.0000
     30 H7          9.4810   -6.4020   -3.9370 H         1    LIG11    0.0000
     31 H8         13.7050  -10.2690   -4.5080 H         1    LIG11    0.0000
     32 H9         14.3570   -9.9510   -6.8240 H         1    LIG11    0.0000
     33 H10        10.0360  -11.8460   -5.8000 H         1    LIG11    0.0000
     34 H11        12.2370  -10.8280   -9.5900 H         1    LIG11    0.0000
     35 H12        13.7260  -10.1860   -9.1510 H         1    LIG11    0.0000
@<TRIPOS>BOND
     1    1    8 1
     2    1    9 1
     3    2    3 1
     4    2   10 1
     5    2   24 1
     6    2   25 1
     7    3    5 1
     8    3   26 1
     9    3   27 1
    10    4    5 1
    11    4    8 2
    12    4   11 1
    13    5    6 2
    14    6    7 1
    15    6   15 1
    16    7    8 1
    17    9   18 2
    18    9   22 1
    19   10   11 2
    20   10   14 1
    21   11   12 1
    22   12   13 1
    23   13   14 2
    24   14   28 1
    25   15   16 2
    26   15   17 1
    27   17   29 1
    28   17   30 1
    29   18   19 1
    30   18   31 1
    31   19   20 2
    32   19   32 1
    33   20   21 1
    34   20   23 1
    35   21   22 2
    36   22   33 1
    37   23   34 1
    38   23   35 1
@<TRIPOS>SUBSTRUCTURE
     1    LIG11    1   GROUP 1   LIG 1
@<TRIPOS>MOLECULE
50778254
   36    39    1     0     0
SMALL
USER_CHARGES


@<TRIPOS>ATOM
      1 O1          8.9500   -4.9690   -2.8990 O.3       1    LIG12    0.0000
      2 C1          6.3810   -7.2560    1.0600 C.3       1    LIG12    0.0000
      3 C2          7.5840   -8.1380    0.6120 C.3       1    LIG12    0.0000
      4 C3          8.1220   -6.4010   -1.1310 C.2       1    LIG12    0.0000
      5 C4          8.4020   -7.6160   -0.5100 C.2       1    LIG12    0.0000
      6 C5          9.5200   -8.2410   -1.0710 C.2       1    LIG12    0.0000
      7 S1         10.2260   -7.3330   -2.3690 S.3       1    LIG12    0.0000
      8 C6          9.0180   -6.1080   -2.1540 C.2       1    LIG12    0.0000
      9 C7          9.8420   -4.7830   -3.9070 C.2       1    LIG12    0.0000
     10 C8          6.2080   -5.9960    0.3110 C.2       1    LIG12    0.0000
     11 C9          7.0440   -5.6070   -0.7250 C.2       1    LIG12    0.0000
     12 S2          6.5850   -4.0830   -1.4080 S.3       1    LIG12    0.0000
     13 N1          5.3070   -4.0020   -0.3110 N.2       1    LIG12    0.0000
     14 C10         5.2180   -5.0490    0.5240 C.2       1    LIG12    0.0000
     15 C11        10.0690   -9.4710   -0.6770 C.2       1    LIG12    0.0000
     16 O2          9.5880  -10.1520    0.2550 O.2       1    LIG12    0.0000
     17 N2         11.1490   -9.9520   -1.3060 N.am      1    LIG12    0.0000
     18 C12        10.9810   -3.9840   -3.7080 C.2       1    LIG12    0.0000
     19 C13        11.8940   -3.7760   -4.7540 C.2       1    LIG12    0.0000
     20 C14        11.6470   -4.3730   -6.0040 C.2       1    LIG12    0.0000
     21 N3         10.5340   -5.1320   -6.1690 N.2       1    LIG12    0.0000
     22 C15         9.6350   -5.3520   -5.1760 C.2       1    LIG12    0.0000
     23 C16        12.5720   -4.1800   -7.1240 C.3       1    LIG12    0.0000
     24 H1          5.4680   -7.8440    0.9570 H         1    LIG12    0.0000
     25 H2          6.5100   -7.0120    2.1160 H         1    LIG12    0.0000
     26 H3          7.1940   -9.1150    0.3230 H         1    LIG12    0.0000
     27 H4          8.2380   -8.2770    1.4750 H         1    LIG12    0.0000
     28 H5          4.4960   -5.1370    1.2400 H         1    LIG12    0.0000
     29 H6         11.5260  -10.8010   -1.0300 H         1    LIG12    0.0000
     30 H7         11.5520   -9.4530   -2.0340 H         1    LIG12    0.0000
     31 H8         11.1470   -3.5540   -2.7970 H         1    LIG12    0.0000
     32 H9         12.7230   -3.1990   -4.6080 H         1    LIG12    0.0000
     33 H10         8.8110   -5.9280   -5.3520 H         1    LIG12    0.0000
     34 H11        12.2100   -4.7140   -8.0030 H         1    LIG12    0.0000
     35 H12        12.6480   -3.1180   -7.3600 H         1    LIG12    0.0000
     36 H13        13.5580   -4.5620   -6.8570 H         1    LIG12    0.0000
@<TRIPOS>BOND
     1    1    8 1
     2    1    9 1
     3    2    3 1
     4    2   10 1
     5    2   24 1
     6    2   25 1
     7    3    5 1
     8    3   26 1
     9    3   27 1
    10    4    5 1
    11    4    8 2
    12    4   11 1
    13    5    6 2
    14    6    7 1
    15    6   15 1
    16    7    8 1
    17    9   18 2
    18    9   22 1
    19   10   11 2
    20   10   14 1
    21   11   12 1
    22   12   13 1
    23   13   14 2
    24   14   28 1
    25   15   16 2
    26   15   17 1
    27   17   29 1
    28   17   30 1
    29   18   19 1
    30   18   31 1
    31   19   20 2
    32   19   32 1
    33   20   21 1
    34   20   23 1
    35   21   22 2
    36   22   33 1
    37   23   34 1
    38   23   35 1
    39   23   36 1
@<TRIPOS>SUBSTRUCTURE
     1    LIG12    1   GROUP 1   LIG 1
@<TRIPOS>MOLECULE
50778678
   50    53    1     0     0
SMALL
USER_CHARGES


@<TRIPOS>ATOM
      1 O1          9.8490   -7.3780   -2.9270 O.3       1    LIG13    0.0000
      2 C1          7.2430   -9.5630    1.0630 C.3       1    LIG13    0.0000
      3 C2          8.4350  -10.4680    0.6340 C.3       1    LIG13    0.0000
      4 C3          9.0080   -8.7630   -1.1290 C.2       1    LIG13    0.0000
      5 C4          9.2710   -9.9700   -0.4870 C.2       1    LIG13    0.0000
      6 C5         10.3850  -10.6160   -1.0310 C.2       1    LIG13    0.0000
      7 S1         11.1110   -9.7350   -2.3360 S.3       1    LIG13    0.0000
      8 C6          9.9140   -8.4950   -2.1500 C.2       1    LIG13    0.0000
      9 C7         10.7860   -7.1820   -3.8930 C.2       1    LIG13    0.0000
     10 C8          7.0880   -8.3150    0.2910 C.2       1    LIG13    0.0000
     11 C9          7.9340   -7.9510   -0.7460 C.2       1    LIG13    0.0000
     12 S2          7.4980   -6.4340   -1.4570 S.3       1    LIG13    0.0000
     13 N1          6.2140   -6.3210   -0.3690 N.2       1    LIG13    0.0000
     14 C10         6.1070   -7.3530    0.4830 C.2       1    LIG13    0.0000
     15 C11        10.9170  -11.8470   -0.6170 C.2       1    LIG13    0.0000
     16 O2         10.4200  -12.5100    0.3210 O.2       1    LIG13    0.0000
     17 N2         11.9940  -12.3500   -1.2330 N.am      1    LIG13    0.0000
     18 C12        12.0570   -6.6740   -3.5700 C.2       1    LIG13    0.0000
     19 C13        13.0120   -6.4550   -4.5750 C.2       1    LIG13    0.0000
     20 C14        12.6840   -6.7430   -5.9150 C.2       1    LIG13    0.0000
     21 N3         11.4410   -7.2250   -6.1880 N.2       1    LIG13    0.0000
     22 C15        10.4920   -7.4490   -5.2440 C.2       1    LIG13    0.0000
     23 C16        13.5970   -6.5460   -6.9700 C.2       1    LIG13    0.0000
     24 N4         13.2570   -6.9190   -8.2230 N.am      1    LIG13    0.0000
     25 O3         14.7230   -6.0360   -6.7660 O.2       1    LIG13    0.0000
     26 C17        14.1150   -6.7520   -9.3410 C.3       1    LIG13    0.0000
     27 C18        13.4530   -7.3280  -10.5990 C.3       1    LIG13    0.0000
     28 O4         12.2110   -6.6700  -10.8410 O.3       1    LIG13    0.0000
     29 C19        11.4730   -7.1010  -11.9810 C.3       1    LIG13    0.0000
     30 C20         9.1800   -7.9660   -5.6470 C.3       1    LIG13    0.0000
     31 H1          6.3220  -10.1410    0.9680 H         1    LIG13    0.0000
     32 H2          7.3710   -9.3020    2.1140 H         1    LIG13    0.0000
     33 H3          8.0330  -11.4420    0.3520 H         1    LIG13    0.0000
     34 H4          9.0790  -10.6090    1.5030 H         1    LIG13    0.0000
     35 H5          5.3810   -7.4210    1.1960 H         1    LIG13    0.0000
     36 H6         12.3580  -13.2010   -0.9430 H         1    LIG13    0.0000
     37 H7         12.4080  -11.8670   -1.9640 H         1    LIG13    0.0000
     38 H8         12.2870   -6.4640   -2.5980 H         1    LIG13    0.0000
     39 H9         13.9330   -6.0890   -4.3270 H         1    LIG13    0.0000
     40 H10        12.3810   -7.3120   -8.3630 H         1    LIG13    0.0000
     41 H11        14.3180   -5.6910   -9.4960 H         1    LIG13    0.0000
     42 H12        15.0560   -7.2770   -9.1670 H         1    LIG13    0.0000
     43 H13        14.1180   -7.1780  -11.4510 H         1    LIG13    0.0000
     44 H14        13.2830   -8.3970  -10.4610 H         1    LIG13    0.0000
     45 H15        10.5500   -6.5260  -12.0490 H         1    LIG13    0.0000
     46 H16        12.0620   -6.9430  -12.8850 H         1    LIG13    0.0000
     47 H17        11.2290   -8.1600  -11.8860 H         1    LIG13    0.0000
     48 H18         9.1480   -8.1010   -6.7290 H         1    LIG13    0.0000
     49 H19         9.0000   -8.9270   -5.1640 H         1    LIG13    0.0000
     50 H20         8.4020   -7.2620   -5.3530 H         1    LIG13    0.0000
@<TRIPOS>BOND
     1    1    8 1
     2    1    9 1
     3    2    3 1
     4    2   10 1
     5    2   31 1
     6    2   32 1
     7    3    5 1
     8    3   33 1
     9    3   34 1
    10    4    5 1
    11    4    8 2
    12    4   11 1
    13    5    6 2
    14    6    7 1
    15    6   15 1
    16    7    8 1
    17    9   18 2
    18    9   22 1
    19   10   11 2
    20   10   14 1
    21   11   12 1
    22   12   13 1
    23   13   14 2
    24   14   35 1
    25   15   16 2
    26   15   17 1
    27   17   36 1
    28   17   37 1
    29   18   19 1
    30   18   38 1
    31   19   20 2
    32   19   39 1
    33   20   21 1
    34   20   23 1
    35   21   22 2
    36   22   30 1
    37   23   24 1
    38   23   25 2
    39   24   26 1
    40   24   40 1
    41   26   27 1
    42   26   41 1
    43   26   42 1
    44   27   28 1
    45   27   43 1
    46   27   44 1
    47   28   29 1
    48   29   45 1
    49   29   46 1
    50   29   47 1
    51   30   48 1
    52   30   49 1
    53   30   50 1
@<TRIPOS>SUBSTRUCTURE
     1    LIG13    1   GROUP 1   LIG 1
@<TRIPOS>MOLECULE
50778746
   27    29    1     0     0
SMALL
USER_CHARGES


@<TRIPOS>ATOM
      1 C1          7.9940   -7.1060    1.2900 C.3       1    LIG14    0.0000
      2 C2          8.3600   -6.4150   -0.0560 C.3       1    LIG14    0.0000
      3 C3          6.0200   -5.4840   -0.1350 C.2       1    LIG14    0.0000
      4 C4          7.2880   -5.6130   -0.6960 C.2       1    LIG14    0.0000
      5 C5          7.4000   -4.9090   -1.9000 C.2       1    LIG14    0.0000
      6 S1          5.9400   -4.0860   -2.3440 S.3       1    LIG14    0.0000
      7 C6          5.1810   -4.6890   -0.9090 C.2       1    LIG14    0.0000
      8 S2          3.5360   -4.3260   -0.4950 S.3       1    LIG14    0.0000
      9 C7          2.9840   -3.2800   -1.8530 C.3       1    LIG14    0.0000
     10 C8          8.5400   -4.8320   -2.7150 C.2       1    LIG14    0.0000
     11 O1          9.6100   -5.4110   -2.4270 O.2       1    LIG14    0.0000
     12 N1          8.5040   -4.1180   -3.8470 N.am      1    LIG14    0.0000
     13 C9          6.6150   -6.8810    1.7620 C.2       1    LIG14    0.0000
     14 C10         5.6910   -6.1090    1.0740 C.2       1    LIG14    0.0000
     15 S3          4.1620   -6.0370    1.8840 S.3       1    LIG14    0.0000
     16 N2          4.7820   -7.0240    3.1030 N.2       1    LIG14    0.0000
     17 C11         6.0600   -7.3930    2.9250 C.2       1    LIG14    0.0000
     18 H1          8.6810   -6.7460    2.0580 H         1    LIG14    0.0000
     19 H2          8.1460   -8.1810    1.1760 H         1    LIG14    0.0000
     20 H3          8.6710   -7.1900   -0.7580 H         1    LIG14    0.0000
     21 H4          9.2140   -5.7600    0.1240 H         1    LIG14    0.0000
     22 H5          1.9460   -2.9920   -1.6860 H         1    LIG14    0.0000
     23 H6          3.6030   -2.3850   -1.9030 H         1    LIG14    0.0000
     24 H7          3.0580   -3.8280   -2.7930 H         1    LIG14    0.0000
     25 H8          9.2940   -4.0670   -4.4060 H         1    LIG14    0.0000
     26 H9          7.6920   -3.6550   -4.1050 H         1    LIG14    0.0000
     27 H10         6.5690   -7.9880    3.5790 H         1    LIG14    0.0000
@<TRIPOS>BOND
     1    1    2 1
     2    1   13 1
     3    1   18 1
     4    1   19 1
     5    2    4 1
     6    2   20 1
     7    2   21 1
     8    3    4 1
     9    3    7 2
    10    3   14 1
    11    4    5 2
    12    5    6 1
    13    5   10 1
    14    6    7 1
    15    7    8 1
    16    8    9 1
    17    9   22 1
    18    9   23 1
    19    9   24 1
    20   10   11 2
    21   10   12 1
    22   12   25 1
    23   12   26 1
    24   13   14 2
    25   13   17 1
    26   14   15 1
    27   15   16 1
    28   16   17 2
    29   17   27 1
@<TRIPOS>SUBSTRUCTURE
     1    LIG14    1   GROUP 1   LIG 1
@<TRIPOS>MOLECULE
692706
   47    50    1     0     0
SMALL
USER_CHARGES


@<TRIPOS>ATOM
      1 N1         -3.0560    4.8820    0.8420 N.2       1    LIG15    0.0000
      2 C1         -1.9870    5.0900    0.0370 C.2       1    LIG15    0.0000
      3 C2         -0.8390    4.2960    0.1790 C.2       1    LIG15    0.0000
      4 C3         -0.7990    3.2730    1.1520 C.2       1    LIG15    0.0000
      5 C4         -1.9360    3.1130    1.9870 C.2       1    LIG15    0.0000
      6 C5         -3.0640    3.9280    1.8020 C.2       1    LIG15    0.0000
      7 C6          0.3160    2.4090    1.3780 C.2       1    LIG15    0.0000
      8 C7          0.3150    1.5710    2.4900 C.2       1    LIG15    0.0000
      9 C8         -0.7970    1.4950    3.4550 C.3       1    LIG15    0.0000
     10 O1         -1.9800    2.1610    2.9720 O.3       1    LIG15    0.0000
     11 N2          1.4970    2.2100    0.7230 N.pl3     1    LIG15    0.0000
     12 C9          2.2570    1.3250    1.4280 C.2       1    LIG15    0.0000
     13 C10         1.5230    0.9050    2.5310 C.2       1    LIG15    0.0000
     14 C11        -0.3990    2.0560    4.8420 C.3       1    LIG15    0.0000
     15 C12         3.5700    0.8730    1.1600 C.2       1    LIG15    0.0000
     16 N3          4.1810   -0.0220    1.9520 N.am      1    LIG15    0.0000
     17 O2          4.2340    1.2960    0.1910 O.2       1    LIG15    0.0000
     18 C13         1.8800    2.7680   -0.5400 C.3       1    LIG15    0.0000
     19 C14         2.6760    4.0680   -0.3490 C.3       1    LIG15    0.0000
     20 C15        -0.0750    3.5650    4.7980 C.3       1    LIG15    0.0000
     21 C16         0.3170    4.0730    6.1940 C.3       1    LIG15    0.0000
     22 C17        -0.8180    3.8120    7.1950 C.3       1    LIG15    0.0000
     23 C18        -1.1520    2.3140    7.2440 C.3       1    LIG15    0.0000
     24 C19        -1.5400    1.8070    5.8470 C.3       1    LIG15    0.0000
     25 H1         -2.0160    5.8290   -0.6670 H         1    LIG15    0.0000
     26 H2         -0.0430    4.5010   -0.4170 H         1    LIG15    0.0000
     27 H3         -3.8880    3.8050    2.3920 H         1    LIG15    0.0000
     28 H4         -1.0530    0.4420    3.5810 H         1    LIG15    0.0000
     29 H5          1.8180    0.2420    3.2490 H         1    LIG15    0.0000
     30 H6          0.4840    1.5220    5.1970 H         1    LIG15    0.0000
     31 H7          5.0850   -0.3040    1.7440 H         1    LIG15    0.0000
     32 H8          3.7250   -0.3840    2.7260 H         1    LIG15    0.0000
     33 H9          2.4930    2.0640   -1.1020 H         1    LIG15    0.0000
     34 H10         1.0100    2.9440   -1.1680 H         1    LIG15    0.0000
     35 H11         2.9020    4.5000   -1.3240 H         1    LIG15    0.0000
     36 H12         2.0980    4.7820    0.2370 H         1    LIG15    0.0000
     37 H13         3.6090    3.8540    0.1710 H         1    LIG15    0.0000
     38 H14        -0.9480    4.1190    4.4500 H         1    LIG15    0.0000
     39 H15         0.7550    3.7470    4.1150 H         1    LIG15    0.0000
     40 H16         1.2210    3.5610    6.5260 H         1    LIG15    0.0000
     41 H17         0.5130    5.1440    6.1440 H         1    LIG15    0.0000
     42 H18        -0.5080    4.1450    8.1860 H         1    LIG15    0.0000
     43 H19        -1.7040    4.3720    6.8930 H         1    LIG15    0.0000
     44 H20        -1.9850    2.1540    7.9290 H         1    LIG15    0.0000
     45 H21        -0.2850    1.7590    7.6040 H         1    LIG15    0.0000
     46 H22        -2.4410    2.3250    5.5140 H         1    LIG15    0.0000
     47 H23        -1.7480    0.7380    5.9030 H         1    LIG15    0.0000
@<TRIPOS>BOND
     1    1    2 2
     2    1    6 1
     3    2    3 1
     4    2   25 1
     5    3    4 2
     6    3   26 1
     7    4    5 1
     8    4    7 1
     9    5    6 2
    10    5   10 1
    11    6   27 1
    12    7    8 2
    13    7   11 1
    14    8    9 1
    15    8   13 1
    16    9   10 1
    17    9   14 1
    18    9   28 1
    19   11   12 1
    20   11   18 1
    21   12   13 2
    22   12   15 1
    23   13   29 1
    24   14   20 1
    25   14   24 1
    26   14   30 1
    27   15   16 1
    28   15   17 2
    29   16   31 1
    30   16   32 1
    31   18   19 1
    32   18   33 1
    33   18   34 1
    34   19   35 1
    35   19   36 1
    36   19   37 1
    37   20   21 1
    38   20   38 1
    39   20   39 1
    40   21   22 1
    41   21   40 1
    42   21   41 1
    43   22   23 1
    44   22   42 1
    45   22   43 1
    46   23   24 1
    47   23   44 1
    48   23   45 1
    49   24   46 1
    50   24   47 1
@<TRIPOS>SUBSTRUCTURE
     1    LIG15    1   GROUP 1   LIG 1
@<TRIPOS>MOLECULE
692705
   47    50    1     0     0
SMALL
USER_CHARGES


@<TRIPOS>ATOM
      1 N1         -3.5500    5.4500    1.0980 N.2       1    LIG16    0.0000
      2 C1         -3.5170    4.1900    0.6040 C.2       1    LIG16    0.0000
      3 C2         -2.3230    3.4520    0.6470 C.2       1    LIG16    0.0000
      4 C3         -1.1540    4.0260    1.1940 C.2       1    LIG16    0.0000
      5 C4         -1.2490    5.3410    1.7210 C.2       1    LIG16    0.0000
      6 C5         -2.4640    6.0410    1.6490 C.2       1    LIG16    0.0000
      7 C6          0.1100    3.3650    1.2830 C.2       1    LIG16    0.0000
      8 C7          1.1370    3.9550    2.0150 C.2       1    LIG16    0.0000
      9 C8          1.0130    5.2570    2.6950 C.3       1    LIG16    0.0000
     10 O1         -0.1730    5.9700    2.2900 O.3       1    LIG16    0.0000
     11 N2          0.5850    2.1800    0.8020 N.pl3     1    LIG16    0.0000
     12 C9          1.8510    1.9820    1.2670 C.2       1    LIG16    0.0000
     13 C10         2.2160    3.0950    2.0170 C.2       1    LIG16    0.0000
     14 C11         1.0460    5.1100    4.2360 C.3       1    LIG16    0.0000
     15 C12         2.7040    0.8710    1.0750 C.2       1    LIG16    0.0000
     16 N3          3.9440    0.8380    1.5880 N.am      1    LIG16    0.0000
     17 O2          2.3420   -0.1420    0.4410 O.2       1    LIG16    0.0000
     18 C13        -0.0830    1.2950   -0.1070 C.3       1    LIG16    0.0000
     19 C14        -0.8610    0.2100    0.6520 C.3       1    LIG16    0.0000
     20 C15         1.0730    6.5060    4.8870 C.3       1    LIG16    0.0000
     21 C16         1.1490    6.3910    6.4170 C.3       1    LIG16    0.0000
     22 C17        -0.0440    5.5860    6.9540 C.3       1    LIG16    0.0000
     23 C18        -0.0800    4.1930    6.3090 C.3       1    LIG16    0.0000
     24 C19        -0.1600    4.3130    4.7800 C.3       1    LIG16    0.0000
     25 H1         -4.3610    3.7760    0.2080 H         1    LIG16    0.0000
     26 H2         -2.3420    2.4990    0.3000 H         1    LIG16    0.0000
     27 H3         -2.5310    6.9900    2.0150 H         1    LIG16    0.0000
     28 H4          1.8680    5.8670    2.4000 H         1    LIG16    0.0000
     29 H5          3.1040    3.2490    2.4960 H         1    LIG16    0.0000
     30 H6          1.9620    4.5890    4.5190 H         1    LIG16    0.0000
     31 H7          4.4990    0.0570    1.4440 H         1    LIG16    0.0000
     32 H8          4.2840    1.5890    2.0970 H         1    LIG16    0.0000
     33 H9         -0.7470    1.8470   -0.7670 H         1    LIG16    0.0000
     34 H10         0.6340    0.8100   -0.7690 H         1    LIG16    0.0000
     35 H11        -1.4100   -0.4060   -0.0600 H         1    LIG16    0.0000
     36 H12        -0.1650   -0.4210    1.2060 H         1    LIG16    0.0000
     37 H13        -1.5620    0.6650    1.3510 H         1    LIG16    0.0000
     38 H14         0.1710    7.0560    4.6130 H         1    LIG16    0.0000
     39 H15         1.9440    7.0560    4.5300 H         1    LIG16    0.0000
     40 H16         2.0790    5.8940    6.6980 H         1    LIG16    0.0000
     41 H17         1.1350    7.3900    6.8540 H         1    LIG16    0.0000
     42 H18        -0.9700    6.1160    6.7270 H         1    LIG16    0.0000
     43 H19         0.0490    5.4810    8.0350 H         1    LIG16    0.0000
     44 H20         0.8190    3.6410    6.5840 H         1    LIG16    0.0000
     45 H21        -0.9540    3.6510    6.6730 H         1    LIG16    0.0000
     46 H22        -1.0880    4.8180    4.5110 H         1    LIG16    0.0000
     47 H23        -0.1650    3.3100    4.3520 H         1    LIG16    0.0000
@<TRIPOS>BOND
     1    1    2 2
     2    1    6 1
     3    2    3 1
     4    2   25 1
     5    3    4 2
     6    3   26 1
     7    4    5 1
     8    4    7 1
     9    5    6 2
    10    5   10 1
    11    6   27 1
    12    7    8 2
    13    7   11 1
    14    8    9 1
    15    8   13 1
    16    9   10 1
    17    9   14 1
    18    9   28 1
    19   11   12 1
    20   11   18 1
    21   12   13 2
    22   12   15 1
    23   13   29 1
    24   14   20 1
    25   14   24 1
    26   14   30 1
    27   15   16 1
    28   15   17 2
    29   16   31 1
    30   16   32 1
    31   18   19 1
    32   18   33 1
    33   18   34 1
    34   19   35 1
    35   19   36 1
    36   19   37 1
    37   20   21 1
    38   20   38 1
    39   20   39 1
    40   21   22 1
    41   21   40 1
    42   21   41 1
    43   22   23 1
    44   22   42 1
    45   22   43 1
    46   23   24 1
    47   23   44 1
    48   23   45 1
    49   24   46 1
    50   24   47 1
@<TRIPOS>SUBSTRUCTURE
     1    LIG16    1   GROUP 1   LIG 1
@<TRIPOS>MOLECULE
692701
   41    44    1     0     0
SMALL
USER_CHARGES


@<TRIPOS>ATOM
      1 C1         -1.6390    2.4640    0.8280 C.2       1    LIG17    0.0000
      2 C2         -0.6390    1.4910    0.9860 C.2       1    LIG17    0.0000
      3 C3          0.6650    1.7250    0.4780 C.2       1    LIG17    0.0000
      4 C4          0.9020    2.9490   -0.1880 C.2       1    LIG17    0.0000
      5 C5         -0.1330    3.8870   -0.3270 C.2       1    LIG17    0.0000
      6 N1         -1.3590    3.6200    0.1810 N.2       1    LIG17    0.0000
      7 O1         -0.9530    0.3500    1.6730 O.3       1    LIG17    0.0000
      8 C6         -0.1060   -0.8170    1.6990 C.3       1    LIG17    0.0000
      9 C7          1.2740   -0.5020    1.2630 C.2       1    LIG17    0.0000
     10 C8          1.6440    0.7030    0.6730 C.2       1    LIG17    0.0000
     11 C9          2.3900   -1.3140    1.2980 C.2       1    LIG17    0.0000
     12 C10         3.4460   -0.6000    0.7430 C.2       1    LIG17    0.0000
     13 N2          2.9720    0.6240    0.3730 N.pl3     1    LIG17    0.0000
     14 C11        -0.1130   -1.3520    3.1490 C.3       1    LIG17    0.0000
     15 C12        -1.5340   -1.7350    3.5920 C.3       1    LIG17    0.0000
     16 C13        -2.1260   -2.7870    2.6430 C.3       1    LIG17    0.0000
     17 C14        -2.1400   -2.2580    1.2010 C.3       1    LIG17    0.0000
     18 C15        -0.7180   -1.8780    0.7560 C.3       1    LIG17    0.0000
     19 C16         3.7350    1.6760   -0.2250 C.3       1    LIG17    0.0000
     20 C17         4.7460   -1.1480    0.6180 C.2       1    LIG17    0.0000
     21 N3          5.0300   -2.3870    1.0530 N.am      1    LIG17    0.0000
     22 O2          5.6980   -0.5290    0.0990 O.2       1    LIG17    0.0000
     23 H1         -2.5740    2.3030    1.2020 H         1    LIG17    0.0000
     24 H2          1.8070    3.1790   -0.5840 H         1    LIG17    0.0000
     25 H3          0.0370    4.7690   -0.8100 H         1    LIG17    0.0000
     26 H4          2.4210   -2.2680    1.6610 H         1    LIG17    0.0000
     27 H5          0.5230   -2.2350    3.2270 H         1    LIG17    0.0000
     28 H6          0.2680   -0.5820    3.8220 H         1    LIG17    0.0000
     29 H7         -1.4980   -2.1430    4.6030 H         1    LIG17    0.0000
     30 H8         -2.1690   -0.8480    3.5920 H         1    LIG17    0.0000
     31 H9         -3.1460   -3.0180    2.9510 H         1    LIG17    0.0000
     32 H10        -1.5260   -3.6970    2.6900 H         1    LIG17    0.0000
     33 H11        -2.5300   -3.0300    0.5380 H         1    LIG17    0.0000
     34 H12        -2.7870   -1.3820    1.1420 H         1    LIG17    0.0000
     35 H13        -0.7650   -1.4830   -0.2590 H         1    LIG17    0.0000
     36 H14        -0.1010   -2.7790    0.7560 H         1    LIG17    0.0000
     37 H15         4.7920    1.4490   -0.3110 H         1    LIG17    0.0000
     38 H16         3.3600    1.8710   -1.2300 H         1    LIG17    0.0000
     39 H17         3.6520    2.5770    0.3840 H         1    LIG17    0.0000
     40 H18         5.9300   -2.7320    0.9510 H         1    LIG17    0.0000
     41 H19         4.3440   -2.9320    1.4650 H         1    LIG17    0.0000
@<TRIPOS>BOND
     1    1    2 2
     2    1    6 1
     3    1   23 1
     4    2    3 1
     5    2    7 1
     6    3    4 2
     7    3   10 1
     8    4    5 1
     9    4   24 1
    10    5    6 2
    11    5   25 1
    12    7    8 1
    13    8    9 1
    14    8   14 1
    15    8   18 1
    16    9   10 2
    17    9   11 1
    18   10   13 1
    19   11   12 2
    20   11   26 1
    21   12   13 1
    22   12   20 1
    23   13   19 1
    24   14   15 1
    25   14   27 1
    26   14   28 1
    27   15   16 1
    28   15   29 1
    29   15   30 1
    30   16   17 1
    31   16   31 1
    32   16   32 1
    33   17   18 1
    34   17   33 1
    35   17   34 1
    36   18   35 1
    37   18   36 1
    38   19   37 1
    39   19   38 1
    40   19   39 1
    41   20   21 1
    42   20   22 2
    43   21   40 1
    44   21   41 1
@<TRIPOS>SUBSTRUCTURE
     1    LIG17    1   GROUP 1   LIG 1
@<TRIPOS>MOLECULE
692689
   35    38    1     0     0
SMALL
USER_CHARGES


@<TRIPOS>ATOM
      1 C1          0.0410    0.6630   -0.1900 C.2       1    LIG18    0.0000
      2 C2         -1.0140    1.2710    0.5400 C.2       1    LIG18    0.0000
      3 O1          1.3440    0.7290    0.2270 O.3       1    LIG18    0.0000
      4 C3          1.7860    1.6240    1.2660 C.3       1    LIG18    0.0000
      5 C4          0.6660    2.1490    2.0700 C.2       1    LIG18    0.0000
      6 C5         -0.6720    1.9940    1.7230 C.2       1    LIG18    0.0000
      7 C6          0.7220    2.9040    3.2240 C.2       1    LIG18    0.0000
      8 C7         -0.5860    3.2030    3.5900 C.2       1    LIG18    0.0000
      9 N1         -1.4170    2.6340    2.6690 N.pl3     1    LIG18    0.0000
     10 C8         -0.8910    3.9830    4.7310 C.2       1    LIG18    0.0000
     11 O2         -2.0580    4.2810    5.0580 O.2       1    LIG18    0.0000
     12 N2          0.0750    4.4620    5.5320 N.am      1    LIG18    0.0000
     13 C9         -2.3290    1.1210    0.0450 C.2       1    LIG18    0.0000
     14 C10        -2.5600    0.3880   -1.1290 C.2       1    LIG18    0.0000
     15 N3         -1.5220   -0.1780   -1.7870 N.2       1    LIG18    0.0000
     16 C11        -0.2430   -0.0650   -1.3560 C.2       1    LIG18    0.0000
     17 C12         2.9710    0.9910    2.0130 C.3       1    LIG18    0.0000
     18 C13         3.9420    1.9170    1.2760 C.3       1    LIG18    0.0000
     19 C14         2.7480    2.6740    0.6890 C.3       1    LIG18    0.0000
     20 C15        -2.8470    2.6830    2.6820 C.3       1    LIG18    0.0000
     21 H1          1.5740    3.1940    3.7050 H         1    LIG18    0.0000
     22 H2         -0.1660    4.9960    6.3040 H         1    LIG18    0.0000
     23 H3          1.0070    4.2770    5.3410 H         1    LIG18    0.0000
     24 H4         -3.1290    1.5370    0.5090 H         1    LIG18    0.0000
     25 H5         -3.5100    0.2810   -1.4880 H         1    LIG18    0.0000
     26 H6          0.5120   -0.5110   -1.8790 H         1    LIG18    0.0000
     27 H7          3.1260   -0.0730    1.8300 H         1    LIG18    0.0000
     28 H8          2.9850    1.1270    3.0950 H         1    LIG18    0.0000
     29 H9          4.5590    1.4130    0.5310 H         1    LIG18    0.0000
     30 H10         4.6030    2.5050    1.9130 H         1    LIG18    0.0000
     31 H11         2.7480    2.7610   -0.3980 H         1    LIG18    0.0000
     32 H12         2.6460    3.6860    1.0850 H         1    LIG18    0.0000
     33 H13        -3.2550    3.1700    3.5620 H         1    LIG18    0.0000
     34 H14        -3.2000    3.2320    1.8090 H         1    LIG18    0.0000
     35 H15        -3.2450    1.6680    2.6670 H         1    LIG18    0.0000
@<TRIPOS>BOND
     1    1    2 1
     2    1    3 1
     3    1   16 2
     4    2    6 1
     5    2   13 2
     6    3    4 1
     7    4    5 1
     8    4   17 1
     9    4   19 1
    10    5    6 2
    11    5    7 1
    12    6    9 1
    13    7    8 2
    14    7   21 1
    15    8    9 1
    16    8   10 1
    17    9   20 1
    18   10   11 2
    19   10   12 1
    20   12   22 1
    21   12   23 1
    22   13   14 1
    23   13   24 1
    24   14   15 2
    25   14   25 1
    26   15   16 1
    27   16   26 1
    28   17   18 1
    29   17   27 1
    30   17   28 1
    31   18   19 1
    32   18   29 1
    33   18   30 1
    34   19   31 1
    35   19   32 1
    36   20   33 1
    37   20   34 1
    38   20   35 1
@<TRIPOS>SUBSTRUCTURE
     1    LIG18    1   GROUP 1   LIG 1
@<TRIPOS>MOLECULE
692688
   38    41    1     0     0
SMALL
USER_CHARGES


@<TRIPOS>ATOM
      1 C1          0.2990    1.1740   -0.2360 C.2       1    LIG19    0.0000
      2 C2         -0.9100    1.3140    0.4950 C.2       1    LIG19    0.0000
      3 O1          1.4740    1.7120    0.2150 O.3       1    LIG19    0.0000
      4 C3          1.6690    2.0680    1.5970 C.3       1    LIG19    0.0000
      5 C4          0.3870    2.3660    2.2670 C.2       1    LIG19    0.0000
      6 C5         -0.8520    2.0160    1.7380 C.2       1    LIG19    0.0000
      7 C6          0.1800    2.9390    3.5060 C.2       1    LIG19    0.0000
      8 C7         -1.1950    2.9700    3.7170 C.2       1    LIG19    0.0000
      9 N1         -1.8040    2.4370    2.6210 N.pl3     1    LIG19    0.0000
     10 C8         -1.7830    3.4770    4.8980 C.2       1    LIG19    0.0000
     11 O2         -3.0170    3.4570    5.0870 O.2       1    LIG19    0.0000
     12 N2         -1.0400    3.9920    5.8900 N.am      1    LIG19    0.0000
     13 C9         -2.0760    0.7250   -0.0410 C.2       1    LIG19    0.0000
     14 C10        -2.0250    0.0580   -1.2750 C.2       1    LIG19    0.0000
     15 N3         -0.8520   -0.0280   -1.9470 N.2       1    LIG19    0.0000
     16 C11         0.2980    0.5040   -1.4700 C.2       1    LIG19    0.0000
     17 C12         2.5720    1.0460    2.3070 C.3       1    LIG19    0.0000
     18 C13         3.7470    2.0250    2.2410 C.3       1    LIG19    0.0000
     19 C14         2.8000    3.1030    1.7060 C.3       1    LIG19    0.0000
     20 C15        -3.2230    2.4090    2.4260 C.3       1    LIG19    0.0000
     21 C16        -3.8400    1.1390    3.0330 C.3       1    LIG19    0.0000
     22 H1          0.9060    3.2650    4.1440 H         1    LIG19    0.0000
     23 H2         -1.4750    4.3250    6.6890 H         1    LIG19    0.0000
     24 H3         -0.0750    4.0310    5.8100 H         1    LIG19    0.0000
     25 H4         -2.9620    0.7410    0.4550 H         1    LIG19    0.0000
     26 H5         -2.8670   -0.3670   -1.6630 H         1    LIG19    0.0000
     27 H6          1.1610    0.4160   -2.0060 H         1    LIG19    0.0000
     28 H7          2.7240    0.1090    1.7700 H         1    LIG19    0.0000
     29 H8          2.2890    0.7840    3.3270 H         1    LIG19    0.0000
     30 H9          4.5310    1.7330    1.5410 H         1    LIG19    0.0000
     31 H10         4.2200    2.2510    3.1970 H         1    LIG19    0.0000
     32 H11         3.1120    3.5550    0.7640 H         1    LIG19    0.0000
     33 H12         2.6380    3.9220    2.4070 H         1    LIG19    0.0000
     34 H13        -3.6910    3.2780    2.8860 H         1    LIG19    0.0000
     35 H14        -3.4730    2.4820    1.3700 H         1    LIG19    0.0000
     36 H15        -4.9070    1.1140    2.8100 H         1    LIG19    0.0000
     37 H16        -3.3630    0.2520    2.6160 H         1    LIG19    0.0000
     38 H17        -3.7010    1.1440    4.1140 H         1    LIG19    0.0000
@<TRIPOS>BOND
     1    1    2 1
     2    1    3 1
     3    1   16 2
     4    2    6 1
     5    2   13 2
     6    3    4 1
     7    4    5 1
     8    4   17 1
     9    4   19 1
    10    5    6 2
    11    5    7 1
    12    6    9 1
    13    7    8 2
    14    7   22 1
    15    8    9 1
    16    8   10 1
    17    9   20 1
    18   10   11 2
    19   10   12 1
    20   12   23 1
    21   12   24 1
    22   13   14 1
    23   13   25 1
    24   14   15 2
    25   14   26 1
    26   15   16 1
    27   16   27 1
    28   17   18 1
    29   17   28 1
    30   17   29 1
    31   18   19 1
    32   18   30 1
    33   18   31 1
    34   19   32 1
    35   19   33 1
    36   20   21 1
    37   20   34 1
    38   20   35 1
    39   21   36 1
    40   21   37 1
    41   21   38 1
@<TRIPOS>SUBSTRUCTURE
     1    LIG19    1   GROUP 1   LIG 1
@<TRIPOS>MOLECULE
692610
   37    39    1     0     0
SMALL
USER_CHARGES


@<TRIPOS>ATOM
      1 C1         -1.3770    1.0900    0.0800 C.2       1    LIG20    0.0000
      2 C2         -1.2050    0.1300   -0.9510 C.2       1    LIG20    0.0000
      3 O1         -2.0080    0.7760    1.2540 O.3       1    LIG20    0.0000
      4 C3         -2.8670   -0.3730    1.3840 C.3       1    LIG20    0.0000
      5 C4         -2.5480   -1.4090    0.3760 C.2       1    LIG20    0.0000
      6 C5         -1.7390   -1.1770   -0.7330 C.2       1    LIG20    0.0000
      7 C6         -3.0170   -2.7060    0.2990 C.2       1    LIG20    0.0000
      8 C7         -2.4610   -3.2770   -0.8400 C.2       1    LIG20    0.0000
      9 N1         -1.6610   -2.3460   -1.4330 N.pl3     1    LIG20    0.0000
     10 C8         -2.7320   -4.6010   -1.2510 C.2       1    LIG20    0.0000
     11 O2         -2.2580   -5.0770   -2.3040 O.2       1    LIG20    0.0000
     12 N2         -3.5330   -5.4110   -0.5410 N.am      1    LIG20    0.0000
     13 C9         -0.5500    0.5440   -2.1320 C.2       1    LIG20    0.0000
     14 C10        -0.0610    1.8550   -2.2440 C.2       1    LIG20    0.0000
     15 N3         -0.2270    2.7260   -1.2210 N.2       1    LIG20    0.0000
     16 C11        -0.8620    2.3870   -0.0750 C.2       1    LIG20    0.0000
     17 C12        -2.6700   -0.9090    2.8140 C.3       1    LIG20    0.0000
     18 C13        -4.3230    0.0990    1.2140 C.3       1    LIG20    0.0000
     19 C14        -0.8240   -2.6120   -2.5660 C.3       1    LIG20    0.0000
     20 C15        -1.5880   -2.3820   -3.8810 C.3       1    LIG20    0.0000
     21 F1         -0.7370   -2.5270   -4.9470 F         1    LIG20    0.0000
     22 H1         -3.6590   -3.1510    0.9550 H         1    LIG20    0.0000
     23 H2         -3.7040   -6.3120   -0.8570 H         1    LIG20    0.0000
     24 H3         -3.9390   -5.1000    0.2820 H         1    LIG20    0.0000
     25 H4         -0.4420   -0.0740   -2.9300 H         1    LIG20    0.0000
     26 H5          0.4130    2.1540   -3.0960 H         1    LIG20    0.0000
     27 H6         -0.9690    3.0740    0.6720 H         1    LIG20    0.0000
     28 H7         -3.3480   -1.7410    3.0070 H         1    LIG20    0.0000
     29 H8         -1.6400   -1.2440    2.9470 H         1    LIG20    0.0000
     30 H9         -2.8750   -0.1130    3.5310 H         1    LIG20    0.0000
     31 H10        -5.0130   -0.7330    1.3630 H         1    LIG20    0.0000
     32 H11        -4.5410    0.8760    1.9480 H         1    LIG20    0.0000
     33 H12        -4.4680    0.5110    0.2140 H         1    LIG20    0.0000
     34 H13         0.0740   -1.9980   -2.5330 H         1    LIG20    0.0000
     35 H14        -0.4650   -3.6400   -2.5420 H         1    LIG20    0.0000
     36 H15        -2.3950   -3.1100   -3.9680 H         1    LIG20    0.0000
     37 H16        -2.0130   -1.3790   -3.8970 H         1    LIG20    0.0000
@<TRIPOS>BOND
     1    1    2 1
     2    1    3 1
     3    1   16 2
     4    2    6 1
     5    2   13 2
     6    3    4 1
     7    4    5 1
     8    4   17 1
     9    4   18 1
    10    5    6 2
    11    5    7 1
    12    6    9 1
    13    7    8 2
    14    7   22 1
    15    8    9 1
    16    8   10 1
    17    9   19 1
    18   10   11 2
    19   10   12 1
    20   12   23 1
    21   12   24 1
    22   13   14 1
    23   13   25 1
    24   14   15 2
    25   14   26 1
    26   15   16 1
    27   16   27 1
    28   17   28 1
    29   17   29 1
    30   17   30 1
    31   18   31 1
    32   18   32 1
    33   18   33 1
    34   19   20 1
    35   19   34 1
    36   19   35 1
    37   20   21 1
    38   20   36 1
    39   20   37 1
@<TRIPOS>SUBSTRUCTURE
     1    LIG20    1   GROUP 1   LIG 1
@<TRIPOS>MOLECULE
692603
   31    33    1     0     0
SMALL
USER_CHARGES


@<TRIPOS>ATOM
      1 C1         -1.7230    0.6280    2.6310 C.2       1    LIG21    0.0000
      2 C2         -0.8330    0.8940    1.5800 C.2       1    LIG21    0.0000
      3 C3          0.2170    1.8280    1.7730 C.2       1    LIG21    0.0000
      4 C4          0.3420    2.4710    3.0340 C.2       1    LIG21    0.0000
      5 C5         -0.5850    2.1580    4.0460 C.2       1    LIG21    0.0000
      6 N1         -1.5730    1.2610    3.8170 N.2       1    LIG21    0.0000
      7 O1         -1.0230    0.2290    0.3930 O.3       1    LIG21    0.0000
      8 C6         -0.1900    0.4020   -0.7740 C.3       1    LIG21    0.0000
      9 C7          0.8960    1.3800   -0.5510 C.2       1    LIG21    0.0000
     10 C8          1.0690    2.0400    0.6600 C.2       1    LIG21    0.0000
     11 C9          1.8890    1.8160   -1.4180 C.2       1    LIG21    0.0000
     12 C10         2.6550    2.7420   -0.7140 C.2       1    LIG21    0.0000
     13 N2          2.1360    2.8480    0.5220 N.pl3     1    LIG21    0.0000
     14 C11         0.3930   -0.9800   -1.1220 C.3       1    LIG21    0.0000
     15 C12        -1.1070    0.8700   -1.9190 C.3       1    LIG21    0.0000
     16 C13         3.7690    3.4540   -1.1780 C.2       1    LIG21    0.0000
     17 N3          4.2360    3.3050   -2.4260 N.am      1    LIG21    0.0000
     18 O2          4.3540    4.2560   -0.4180 O.2       1    LIG21    0.0000
     19 Cl1         1.5400    3.6080    3.4280 Cl        1    LIG21    0.0000
     20 H1         -2.4820   -0.0410    2.5020 H         1    LIG21    0.0000
     21 H2         -0.5270    2.6020    4.9640 H         1    LIG21    0.0000
     22 H3          2.0250    1.5150   -2.3830 H         1    LIG21    0.0000
     23 H4          2.4890    3.4320    1.2090 H         1    LIG21    0.0000
     24 H5          0.9820   -0.9260   -2.0390 H         1    LIG21    0.0000
     25 H6          1.0260   -1.3330   -0.3070 H         1    LIG21    0.0000
     26 H7         -0.4210   -1.6910   -1.2670 H         1    LIG21    0.0000
     27 H8         -0.5440    0.9530   -2.8490 H         1    LIG21    0.0000
     28 H9         -1.9130    0.1490   -2.0560 H         1    LIG21    0.0000
     29 H10        -1.5430    1.8400   -1.6730 H         1    LIG21    0.0000
     30 H11         5.0090    3.8160   -2.7110 H         1    LIG21    0.0000
     31 H12         3.8050    2.6910   -3.0390 H         1    LIG21    0.0000
@<TRIPOS>BOND
     1    1    2 2
     2    1    6 1
     3    1   20 1
     4    2    3 1
     5    2    7 1
     6    3    4 2
     7    3   10 1
     8    4    5 1
     9    4   19 1
    10    5    6 2
    11    5   21 1
    12    7    8 1
    13    8    9 1
    14    8   14 1
    15    8   15 1
    16    9   10 2
    17    9   11 1
    18   10   13 1
    19   11   12 2
    20   11   22 1
    21   12   13 1
    22   12   16 1
    23   13   23 1
    24   14   24 1
    25   14   25 1
    26   14   26 1
    27   15   27 1
    28   15   28 1
    29   15   29 1
    30   16   17 1
    31   16   18 2
    32   17   30 1
    33   17   31 1
@<TRIPOS>SUBSTRUCTURE
     1    LIG21    1   GROUP 1   LIG 1
@<TRIPOS>MOLECULE
692592
   32    35    1     0     0
SMALL
USER_CHARGES


@<TRIPOS>ATOM
      1 C1         -1.2780    0.7820    1.7280 C.2       1    LIG22    0.0000
      2 C2         -0.1510    0.2350    1.0940 C.2       1    LIG22    0.0000
      3 C3          1.0300    1.0110    1.0260 C.2       1    LIG22    0.0000
      4 C4          1.0580    2.3020    1.5850 C.2       1    LIG22    0.0000
      5 C5         -0.1000    2.7970    2.2050 C.2       1    LIG22    0.0000
      6 N1         -1.2180    2.0300    2.2570 N.2       1    LIG22    0.0000
      7 O1         -0.2140   -1.0310    0.5600 O.3       1    LIG22    0.0000
      8 C6          0.8990   -1.6700   -0.1150 C.3       1    LIG22    0.0000
      9 C7          2.1110   -0.8270   -0.1620 C.2       1    LIG22    0.0000
     10 C8          2.1450    0.4450    0.3890 C.2       1    LIG22    0.0000
     11 C9          3.3640   -1.0740   -0.7050 C.2       1    LIG22    0.0000
     12 C10         4.1350    0.0640   -0.4690 C.2       1    LIG22    0.0000
     13 N2          3.3720    0.9560    0.1900 N.pl3     1    LIG22    0.0000
     14 C11         5.4700    0.2750   -0.8380 C.2       1    LIG22    0.0000
     15 N3          6.1800   -0.6540   -1.4950 N.am      1    LIG22    0.0000
     16 O2          6.0300    1.3560   -0.5550 O.2       1    LIG22    0.0000
     17 C12         1.0770   -3.0990    0.4220 C.3       1    LIG22    0.0000
     18 C13         0.4120   -3.6630   -0.8360 C.3       1    LIG22    0.0000
     19 C14         0.4220   -2.2610   -1.4510 C.3       1    LIG22    0.0000
     20 H1         -2.1420    0.2430    1.7910 H         1    LIG22    0.0000
     21 H2          1.9010    2.8770    1.5450 H         1    LIG22    0.0000
     22 H3         -0.1020    3.7310    2.6170 H         1    LIG22    0.0000
     23 H4          3.6580   -1.9260   -1.1840 H         1    LIG22    0.0000
     24 H5          3.6670    1.8340    0.4760 H         1    LIG22    0.0000
     25 H6          7.1020   -0.4720   -1.7330 H         1    LIG22    0.0000
     26 H7          5.7750   -1.5020   -1.7300 H         1    LIG22    0.0000
     27 H8          0.5550   -3.3160    1.3550 H         1    LIG22    0.0000
     28 H9          2.1060   -3.4360    0.5520 H         1    LIG22    0.0000
     29 H10        -0.5870   -4.0670   -0.6670 H         1    LIG22    0.0000
     30 H11         0.9900   -4.4150   -1.3740 H         1    LIG22    0.0000
     31 H12        -0.5490   -1.9060   -1.7990 H         1    LIG22    0.0000
     32 H13         1.1120   -2.1650   -2.2900 H         1    LIG22    0.0000
@<TRIPOS>BOND
     1    1    2 2
     2    1    6 1
     3    1   20 1
     4    2    3 1
     5    2    7 1
     6    3    4 2
     7    3   10 1
     8    4    5 1
     9    4   21 1
    10    5    6 2
    11    5   22 1
    12    7    8 1
    13    8    9 1
    14    8   17 1
    15    8   19 1
    16    9   10 2
    17    9   11 1
    18   10   13 1
    19   11   12 2
    20   11   23 1
    21   12   13 1
    22   12   14 1
    23   13   24 1
    24   14   15 1
    25   14   16 2
    26   15   25 1
    27   15   26 1
    28   17   18 1
    29   17   27 1
    30   17   28 1
    31   18   19 1
    32   18   29 1
    33   18   30 1
    34   19   31 1
    35   19   32 1
@<TRIPOS>SUBSTRUCTURE
     1    LIG22    1   GROUP 1   LIG 1
@<TRIPOS>MOLECULE
692595
   34    36    1     0     0
SMALL
USER_CHARGES


@<TRIPOS>ATOM
      1 C1         -1.6900    0.6430    1.0000 C.2       1    LIG23    0.0000
      2 C2         -0.4150    0.1510    0.6770 C.2       1    LIG23    0.0000
      3 C3          0.7430    0.8230    1.1480 C.2       1    LIG23    0.0000
      4 C4          0.5560    1.9810    1.9380 C.2       1    LIG23    0.0000
      5 C5         -0.7400    2.4320    2.2330 C.2       1    LIG23    0.0000
      6 N1         -1.8130    1.7560    1.7600 N.2       1    LIG23    0.0000
      7 O1         -0.3440   -0.9780   -0.0930 O.3       1    LIG23    0.0000
      8 C6          0.8960   -1.5870   -0.5030 C.3       1    LIG23    0.0000
      9 C7          2.0820   -0.8620    0.0050 C.2       1    LIG23    0.0000
     10 C8          2.0160    0.2840    0.7900 C.2       1    LIG23    0.0000
     11 C9          3.4150   -1.1650   -0.1930 C.2       1    LIG23    0.0000
     12 C10         4.1660   -0.2010    0.4730 C.2       1    LIG23    0.0000
     13 N2          3.2970    0.6680    1.0640 N.pl3     1    LIG23    0.0000
     14 C11         5.5810   -0.2150    0.4700 C.2       1    LIG23    0.0000
     15 N3          6.2730   -1.1650   -0.1800 N.am      1    LIG23    0.0000
     16 O2          6.2720    0.6420    1.0600 O.2       1    LIG23    0.0000
     17 C12         0.8800   -3.0330    0.0250 C.3       1    LIG23    0.0000
     18 C13         0.8960   -1.6090   -2.0430 C.3       1    LIG23    0.0000
     19 C14         3.6540    1.8090    1.8490 C.3       1    LIG23    0.0000
     20 H1         -2.5250    0.1620    0.6630 H         1    LIG23    0.0000
     21 H2          1.3370    2.5120    2.3090 H         1    LIG23    0.0000
     22 H3         -0.8740    3.2670    2.8020 H         1    LIG23    0.0000
     23 H4          3.7720   -1.9540   -0.7320 H         1    LIG23    0.0000
     24 H5          7.2420   -1.1450   -0.1640 H         1    LIG23    0.0000
     25 H6          5.8100   -1.8650   -0.6620 H         1    LIG23    0.0000
     26 H7          1.7600   -3.5760   -0.3220 H         1    LIG23    0.0000
     27 H8          0.8660   -3.0310    1.1160 H         1    LIG23    0.0000
     28 H9         -0.0140   -3.5430   -0.3360 H         1    LIG23    0.0000
     29 H10         1.7770   -2.1320   -2.4170 H         1    LIG23    0.0000
     30 H11         0.0030   -2.1230   -2.3990 H         1    LIG23    0.0000
     31 H12         0.8920   -0.5890   -2.4300 H         1    LIG23    0.0000
     32 H13         4.7250    1.9470    1.9520 H         1    LIG23    0.0000
     33 H14         3.2570    2.7110    1.3820 H         1    LIG23    0.0000
     34 H15         3.2460    1.7000    2.8550 H         1    LIG23    0.0000
@<TRIPOS>BOND
     1    1    2 2
     2    1    6 1
     3    1   20 1
     4    2    3 1
     5    2    7 1
     6    3    4 2
     7    3   10 1
     8    4    5 1
     9    4   21 1
    10    5    6 2
    11    5   22 1
    12    7    8 1
    13    8    9 1
    14    8   17 1
    15    8   18 1
    16    9   10 2
    17    9   11 1
    18   10   13 1
    19   11   12 2
    20   11   23 1
    21   12   13 1
    22   12   14 1
    23   13   19 1
    24   14   15 1
    25   14   16 2
    26   15   24 1
    27   15   25 1
    28   17   26 1
    29   17   27 1
    30   17   28 1
    31   18   29 1
    32   18   30 1
    33   18   31 1
    34   19   32 1
    35   19   33 1
    36   19   34 1
@<TRIPOS>SUBSTRUCTURE
     1    LIG23    1   GROUP 1   LIG 1
@<TRIPOS>MOLECULE
51300959
   40    43    1     0     0
SMALL
USER_CHARGES


@<TRIPOS>ATOM
      1 C1          6.1010  -12.6110    0.3490 C.3       1    LIG24    0.0000
      2 C2          7.4010  -13.1790    0.9770 C.3       1    LIG24    0.0000
      3 C3          6.1920  -11.2020   -0.0560 C.2       1    LIG24    0.0000
      4 C4          7.3190  -10.4010    0.0700 C.2       1    LIG24    0.0000
      5 N1          6.9600   -9.1890   -0.4260 N.pl3     1    LIG24    0.0000
      6 N2          5.7260   -9.2030   -0.8330 N.2       1    LIG24    0.0000
      7 C5          5.2060  -10.4200   -0.6290 C.2       1    LIG24    0.0000
      8 C6          8.5140  -10.9260    0.6290 C.2       1    LIG24    0.0000
      9 C7          8.5590  -12.2550    1.0670 C.2       1    LIG24    0.0000
     10 C8          9.8040  -12.6090    1.5970 C.2       1    LIG24    0.0000
     11 S1         10.9460  -11.3110    1.5640 S.3       1    LIG24    0.0000
     12 C9          9.7450  -10.2950    0.8360 C.2       1    LIG24    0.0000
     13 C10         7.7280   -8.0030   -0.5360 C.3       1    LIG24    0.0000
     14 O1         10.0140   -9.0020    0.5220 O.3       1    LIG24    0.0000
     15 C11        11.2520   -8.4890    0.7540 C.2       1    LIG24    0.0000
     16 C12        10.1700  -13.8590    2.1200 C.2       1    LIG24    0.0000
     17 O2          9.3810  -14.8280    2.1650 O.2       1    LIG24    0.0000
     18 N3         11.4080  -14.0450    2.5970 N.am      1    LIG24    0.0000
     19 C13        12.3030   -8.7140   -0.1540 C.2       1    LIG24    0.0000
     20 C14        13.5740   -8.1650    0.0800 C.2       1    LIG24    0.0000
     21 C15        13.7730   -7.3850    1.2300 C.2       1    LIG24    0.0000
     22 N4         12.7400   -7.1740    2.0840 N.2       1    LIG24    0.0000
     23 C16        11.4990   -7.6890    1.8880 C.2       1    LIG24    0.0000
     24 C17        10.4380   -7.4080    2.8610 C.3       1    LIG24    0.0000
     25 H1          5.2910  -12.7110    1.0740 H         1    LIG24    0.0000
     26 H2          5.8490  -13.2070   -0.5290 H         1    LIG24    0.0000
     27 H3          7.1610  -13.5220    1.9850 H         1    LIG24    0.0000
     28 H4          7.7010  -14.0470    0.3890 H         1    LIG24    0.0000
     29 H5          4.2560  -10.7150   -0.8540 H         1    LIG24    0.0000
     30 H6          7.1270   -7.2080   -0.9790 H         1    LIG24    0.0000
     31 H7          8.0520   -7.6770    0.4520 H         1    LIG24    0.0000
     32 H8          8.5900   -8.1780   -1.1800 H         1    LIG24    0.0000
     33 H9         11.6580  -14.9090    2.9570 H         1    LIG24    0.0000
     34 H10        12.0500  -13.3190    2.5830 H         1    LIG24    0.0000
     35 H11        12.1410   -9.2790   -0.9880 H         1    LIG24    0.0000
     36 H12        14.3390   -8.3290   -0.5740 H         1    LIG24    0.0000
     37 H13        14.6870   -6.9760    1.4220 H         1    LIG24    0.0000
     38 H14        10.8210   -6.7720    3.6590 H         1    LIG24    0.0000
     39 H15         9.6110   -6.8990    2.3650 H         1    LIG24    0.0000
     40 H16        10.0780   -8.3430    3.2920 H         1    LIG24    0.0000
@<TRIPOS>BOND
     1    1    2 1
     2    1    3 1
     3    1   25 1
     4    1   26 1
     5    2    9 1
     6    2   27 1
     7    2   28 1
     8    3    4 2
     9    3    7 1
    10    4    5 1
    11    4    8 1
    12    5    6 1
    13    5   13 1
    14    6    7 2
    15    7   29 1
    16    8    9 1
    17    8   12 2
    18    9   10 2
    19   10   11 1
    20   10   16 1
    21   11   12 1
    22   12   14 1
    23   13   30 1
    24   13   31 1
    25   13   32 1
    26   14   15 1
    27   15   19 2
    28   15   23 1
    29   16   17 2
    30   16   18 1
    31   18   33 1
    32   18   34 1
    33   19   20 1
    34   19   35 1
    35   20   21 2
    36   20   36 1
    37   21   22 1
    38   21   37 1
    39   22   23 2
    40   23   24 1
    41   24   38 1
    42   24   39 1
    43   24   40 1
@<TRIPOS>SUBSTRUCTURE
     1    LIG24    1   GROUP 1   LIG 1
@<TRIPOS>MOLECULE
51300980
   40    43    1     0     0
SMALL
USER_CHARGES


@<TRIPOS>ATOM
      1 C1          6.1010  -12.6110    0.3490 C.3       1    LIG25    0.0000
      2 C2          7.4010  -13.1790    0.9770 C.3       1    LIG25    0.0000
      3 C3          6.1920  -11.2020   -0.0560 C.2       1    LIG25    0.0000
      4 C4          7.3190  -10.4010    0.0700 C.2       1    LIG25    0.0000
      5 N1          6.9600   -9.1890   -0.4260 N.pl3     1    LIG25    0.0000
      6 N2          5.7260   -9.2030   -0.8330 N.2       1    LIG25    0.0000
      7 C5          5.2060  -10.4200   -0.6290 C.2       1    LIG25    0.0000
      8 C6          8.5140  -10.9260    0.6290 C.2       1    LIG25    0.0000
      9 C7          8.5590  -12.2550    1.0670 C.2       1    LIG25    0.0000
     10 C8          9.8040  -12.6090    1.5970 C.2       1    LIG25    0.0000
     11 S1         10.9460  -11.3110    1.5640 S.3       1    LIG25    0.0000
     12 C9          9.7450  -10.2950    0.8360 C.2       1    LIG25    0.0000
     13 C10         7.7280   -8.0030   -0.5360 C.3       1    LIG25    0.0000
     14 O1         10.0140   -9.0020    0.5220 O.3       1    LIG25    0.0000
     15 C11        11.2520   -8.4890    0.7540 C.2       1    LIG25    0.0000
     16 C12        10.1700  -13.8590    2.1200 C.2       1    LIG25    0.0000
     17 O2          9.3810  -14.8280    2.1650 O.2       1    LIG25    0.0000
     18 N3         11.4080  -14.0450    2.5970 N.am      1    LIG25    0.0000
     19 C13        12.3030   -8.7140   -0.1540 C.2       1    LIG25    0.0000
     20 C14        13.5740   -8.1650    0.0800 C.2       1    LIG25    0.0000
     21 C15        13.7730   -7.3850    1.2300 C.2       1    LIG25    0.0000
     22 N4         12.7400   -7.1740    2.0840 N.2       1    LIG25    0.0000
     23 C16        11.4990   -7.6890    1.8880 C.2       1    LIG25    0.0000
     24 C17        10.4380   -7.4080    2.8610 C.3       1    LIG25    0.0000
     25 H1          5.2910  -12.7110    1.0740 H         1    LIG25    0.0000
     26 H2          5.8490  -13.2070   -0.5290 H         1    LIG25    0.0000
     27 H3          7.1610  -13.5220    1.9850 H         1    LIG25    0.0000
     28 H4          7.7010  -14.0470    0.3890 H         1    LIG25    0.0000
     29 H5          4.2560  -10.7150   -0.8540 H         1    LIG25    0.0000
     30 H6          7.1270   -7.2080   -0.9790 H         1    LIG25    0.0000
     31 H7          8.0520   -7.6770    0.4520 H         1    LIG25    0.0000
     32 H8          8.5900   -8.1780   -1.1800 H         1    LIG25    0.0000
     33 H9         11.6580  -14.9090    2.9570 H         1    LIG25    0.0000
     34 H10        12.0500  -13.3190    2.5830 H         1    LIG25    0.0000
     35 H11        12.1410   -9.2790   -0.9880 H         1    LIG25    0.0000
     36 H12        14.3390   -8.3290   -0.5740 H         1    LIG25    0.0000
     37 H13        14.6870   -6.9760    1.4220 H         1    LIG25    0.0000
     38 H14        10.8210   -6.7720    3.6590 H         1    LIG25    0.0000
     39 H15         9.6110   -6.8990    2.3650 H         1    LIG25    0.0000
     40 H16        10.0780   -8.3430    3.2920 H         1    LIG25    0.0000
@<TRIPOS>BOND
     1    1    2 1
     2    1    3 1
     3    1   25 1
     4    1   26 1
     5    2    9 1
     6    2   27 1
     7    2   28 1
     8    3    4 2
     9    3    7 1
    10    4    5 1
    11    4    8 1
    12    5    6 1
    13    5   13 1
    14    6    7 2
    15    7   29 1
    16    8    9 1
    17    8   12 2
    18    9   10 2
    19   10   11 1
    20   10   16 1
    21   11   12 1
    22   12   14 1
    23   13   30 1
    24   13   31 1
    25   13   32 1
    26   14   15 1
    27   15   19 2
    28   15   23 1
    29   16   17 2
    30   16   18 1
    31   18   33 1
    32   18   34 1
    33   19   20 1
    34   19   35 1
    35   20   21 2
    36   20   36 1
    37   21   22 1
    38   21   37 1
    39   22   23 2
    40   23   24 1
    41   24   38 1
    42   24   39 1
    43   24   40 1
@<TRIPOS>SUBSTRUCTURE
     1    LIG25    1   GROUP 1   LIG 1
@<TRIPOS>MOLECULE
50778208
   50    53    1     0     0
SMALL
USER_CHARGES


@<TRIPOS>ATOM
      1 O1          9.9160   -7.3520   -2.7850 O.3       1    LIG26    0.0000
      2 C1          7.0200   -9.7530    0.8700 C.3       1    LIG26    0.0000
      3 C2          8.3530  -10.5250    0.6400 C.3       1    LIG26    0.0000
      4 C3          8.9810   -8.7940   -1.0790 C.2       1    LIG26    0.0000
      5 C4          9.2770   -9.9570   -0.3710 C.2       1    LIG26    0.0000
      6 C5         10.5170  -10.4880   -0.7400 C.2       1    LIG26    0.0000
      7 S1         11.3220   -9.5510   -1.9560 S.3       1    LIG26    0.0000
      8 C6          9.9890   -8.4420   -1.9700 C.2       1    LIG26    0.0000
      9 C7         11.0020   -6.9180   -3.4830 C.2       1    LIG26    0.0000
     10 C8          6.8440   -8.5390    0.0500 C.2       1    LIG26    0.0000
     11 C9          7.7830   -8.1000   -0.8700 C.2       1    LIG26    0.0000
     12 S2          7.2920   -6.6490   -1.6770 S.3       1    LIG26    0.0000
     13 N1          5.8650   -6.6590   -0.7780 N.2       1    LIG26    0.0000
     14 C10         5.7500   -7.6860    0.0790 C.2       1    LIG26    0.0000
     15 C11        11.1070  -11.6530   -0.2280 C.2       1    LIG26    0.0000
     16 O2         10.5550  -12.3530    0.6490 O.2       1    LIG26    0.0000
     17 N2         12.3020  -12.0520   -0.6820 N.am      1    LIG26    0.0000
     18 C12        10.8740   -6.6930   -4.8630 C.2       1    LIG26    0.0000
     19 C13        11.9610   -6.2210   -5.6160 C.2       1    LIG26    0.0000
     20 C14        13.1860   -5.9560   -4.9710 C.2       1    LIG26    0.0000
     21 N3         13.2710   -6.1690   -3.6290 N.2       1    LIG26    0.0000
     22 C15        12.2400   -6.6300   -2.8770 C.2       1    LIG26    0.0000
     23 C16        14.3100   -5.4710   -5.6690 C.2       1    LIG26    0.0000
     24 N4         15.4350   -5.1600   -4.9890 N.am      1    LIG26    0.0000
     25 O3         14.2840   -5.3160   -6.9120 O.2       1    LIG26    0.0000
     26 C17        16.6090   -4.6670   -5.6150 C.3       1    LIG26    0.0000
     27 C18        17.6800   -4.3820   -4.5570 C.3       1    LIG26    0.0000
     28 O4         17.9880   -5.5780   -3.8460 O.3       1    LIG26    0.0000
     29 C19        18.9730   -5.4740   -2.8230 C.3       1    LIG26    0.0000
     30 C20        19.1760   -6.8470   -2.1780 C.3       1    LIG26    0.0000
     31 H1          6.1910  -10.4300    0.6610 H         1    LIG26    0.0000
     32 H2          6.9680   -9.4660    1.9220 H         1    LIG26    0.0000
     33 H3          8.1030  -11.5440    0.3400 H         1    LIG26    0.0000
     34 H4          8.8810  -10.5740    1.5940 H         1    LIG26    0.0000
     35 H5          4.9440   -7.8220    0.6890 H         1    LIG26    0.0000
     36 H6         12.7040  -12.8590   -0.3270 H         1    LIG26    0.0000
     37 H7         12.7610  -11.5370   -1.3630 H         1    LIG26    0.0000
     38 H8          9.9840   -6.8790   -5.3250 H         1    LIG26    0.0000
     39 H9         11.8540   -6.0690   -6.6200 H         1    LIG26    0.0000
     40 H10        12.3640   -6.7610   -1.8730 H         1    LIG26    0.0000
     41 H11        15.4390   -5.2890   -4.0270 H         1    LIG26    0.0000
     42 H12        16.9900   -5.4070   -6.3220 H         1    LIG26    0.0000
     43 H13        16.3840   -3.7420   -6.1490 H         1    LIG26    0.0000
     44 H14        18.5780   -4.0080   -5.0510 H         1    LIG26    0.0000
     45 H15        17.3100   -3.6250   -3.8640 H         1    LIG26    0.0000
     46 H16        19.9160   -5.1340   -3.2510 H         1    LIG26    0.0000
     47 H17        18.6420   -4.7640   -2.0630 H         1    LIG26    0.0000
     48 H18        19.9280   -6.7730   -1.3920 H         1    LIG26    0.0000
     49 H19        18.2350   -7.1920   -1.7480 H         1    LIG26    0.0000
     50 H20        19.5100   -7.5590   -2.9340 H         1    LIG26    0.0000
@<TRIPOS>BOND
     1    1    8 1
     2    1    9 1
     3    2    3 1
     4    2   10 1
     5    2   31 1
     6    2   32 1
     7    3    5 1
     8    3   33 1
     9    3   34 1
    10    4    5 1
    11    4    8 2
    12    4   11 1
    13    5    6 2
    14    6    7 1
    15    6   15 1
    16    7    8 1
    17    9   18 2
    18    9   22 1
    19   10   11 2
    20   10   14 1
    21   11   12 1
    22   12   13 1
    23   13   14 2
    24   14   35 1
    25   15   16 2
    26   15   17 1
    27   17   36 1
    28   17   37 1
    29   18   19 1
    30   18   38 1
    31   19   20 2
    32   19   39 1
    33   20   21 1
    34   20   23 1
    35   21   22 2
    36   22   40 1
    37   23   24 1
    38   23   25 2
    39   24   26 1
    40   24   41 1
    41   26   27 1
    42   26   42 1
    43   26   43 1
    44   27   28 1
    45   27   44 1
    46   27   45 1
    47   28   29 1
    48   29   30 1
    49   29   46 1
    50   29   47 1
    51   30   48 1
    52   30   49 1
    53   30   50 1
@<TRIPOS>SUBSTRUCTURE
     1    LIG26    1   GROUP 1   LIG 1
@<TRIPOS>MOLECULE
51419722
   52    57    1     0     0
SMALL
USER_CHARGES


@<TRIPOS>ATOM
      1 N1         15.8810  -11.7250    1.2220 N.am      1    LIG27    0.0000
      2 C1         16.3980  -12.7870    0.5940 C.2       1    LIG27    0.0000
      3 N2         15.6020  -13.1390   -0.4130 N.am      1    LIG27    0.0000
      4 C2         14.5600  -12.3060   -0.4450 C.2       1    LIG27    0.0000
      5 C3         14.6600  -11.3070    0.6310 C.3       1    LIG27    0.0000
      6 C4         13.4900  -11.4020    1.6250 C.3       1    LIG27    0.0000
      7 C5         13.6460  -10.3300    2.7170 C.3       1    LIG27    0.0000
      8 N3         13.7610   -9.0180    2.1480 N.pl3     1    LIG27    0.0000
      9 C6         14.8640   -8.8590    1.2400 C.3       1    LIG27    0.0000
     10 C7         14.7640   -9.8700    0.0870 C.3       1    LIG27    0.0000
     11 O1         17.4630  -13.3580    0.9070 O.2       1    LIG27    0.0000
     12 O2         13.6300  -12.3740   -1.2790 O.2       1    LIG27    0.0000
     13 C8         10.6400   -7.1310    2.8460 C.2       1    LIG27    0.0000
     14 C9         11.5080   -8.1900    2.5860 C.2       1    LIG27    0.0000
     15 C10        12.9060   -7.9790    2.4740 C.2       1    LIG27    0.0000
     16 C11        13.3670   -6.6390    2.6850 C.2       1    LIG27    0.0000
     17 C12        12.4220   -5.6110    2.9350 C.2       1    LIG27    0.0000
     18 N4         11.0950   -5.8730    3.0100 N.2       1    LIG27    0.0000
     19 N5          9.3750   -7.5690    2.8700 N.pl3     1    LIG27    0.0000
     20 C13        10.6870   -9.3030    2.4200 C.2       1    LIG27    0.0000
     21 C14         9.3740   -8.8860    2.6140 C.2       1    LIG27    0.0000
     22 N6         18.7610   -5.4740    3.3380 N.pl3     1    LIG27    0.0000
     23 N7         19.0730   -6.3670    4.2330 N.2       1    LIG27    0.0000
     24 C15        17.9820   -7.0940    4.5420 C.2       1    LIG27    0.0000
     25 C16        16.9300   -6.6130    3.7820 C.2       1    LIG27    0.0000
     26 C17        15.5820   -6.9870    3.6950 C.2       1    LIG27    0.0000
     27 C18        14.7390   -6.2880    2.7950 C.2       1    LIG27    0.0000
     28 C19        15.2810   -5.2240    2.0250 C.2       1    LIG27    0.0000
     29 C20        16.6400   -4.8640    2.1300 C.2       1    LIG27    0.0000
     30 C21        17.4560   -5.5790    3.0220 C.2       1    LIG27    0.0000
     31 C22        19.7050   -4.5530    2.8130 C.3       1    LIG27    0.0000
     32 H1         16.2920  -11.2960    1.9870 H         1    LIG27    0.0000
     33 H2         15.7530  -13.8780   -1.0210 H         1    LIG27    0.0000
     34 H3         13.4700  -12.3890    2.0900 H         1    LIG27    0.0000
     35 H4         12.5540  -11.2440    1.0890 H         1    LIG27    0.0000
     36 H5         12.8260  -10.4120    3.4310 H         1    LIG27    0.0000
     37 H6         14.5640  -10.5390    3.2680 H         1    LIG27    0.0000
     38 H7         14.8830   -7.8710    0.7790 H         1    LIG27    0.0000
     39 H8         15.8030   -9.0200    1.7710 H         1    LIG27    0.0000
     40 H9         15.6440   -9.7730   -0.5510 H         1    LIG27    0.0000
     41 H10        13.8740   -9.6410   -0.5030 H         1    LIG27    0.0000
     42 H11        12.7310   -4.6500    3.0970 H         1    LIG27    0.0000
     43 H12         8.5910   -7.0220    3.0290 H         1    LIG27    0.0000
     44 H13        10.9750  -10.2510    2.1910 H         1    LIG27    0.0000
     45 H14         8.5470   -9.4810    2.5560 H         1    LIG27    0.0000
     46 H15        17.9420   -7.8600    5.2140 H         1    LIG27    0.0000
     47 H16        15.2230   -7.7520    4.2690 H         1    LIG27    0.0000
     48 H17        14.6870   -4.7090    1.3730 H         1    LIG27    0.0000
     49 H18        17.0200   -4.1020    1.5690 H         1    LIG27    0.0000
     50 H19        19.2530   -3.8880    2.0760 H         1    LIG27    0.0000
     51 H20        20.1110   -3.9520    3.6270 H         1    LIG27    0.0000
     52 H21        20.5170   -5.1040    2.3390 H         1    LIG27    0.0000
@<TRIPOS>BOND
     1    1    2 1
     2    1    5 1
     3    1   32 1
     4    2    3 1
     5    2   11 2
     6    3    4 1
     7    3   33 1
     8    4    5 1
     9    4   12 2
    10    5    6 1
    11    5   10 1
    12    6    7 1
    13    6   34 1
    14    6   35 1
    15    7    8 1
    16    7   36 1
    17    7   37 1
    18    8    9 1
    19    8   15 1
    20    9   10 1
    21    9   38 1
    22    9   39 1
    23   10   40 1
    24   10   41 1
    25   13   14 1
    26   13   18 2
    27   13   19 1
    28   14   15 2
    29   14   20 1
    30   15   16 1
    31   16   17 2
    32   16   27 1
    33   17   18 1
    34   17   42 1
    35   19   21 1
    36   19   43 1
    37   20   21 2
    38   20   44 1
    39   21   45 1
    40   22   23 1
    41   22   30 1
    42   22   31 1
    43   23   24 2
    44   24   25 1
    45   24   46 1
    46   25   26 1
    47   25   30 2
    48   26   27 2
    49   26   47 1
    50   27   28 1
    51   28   29 2
    52   28   48 1
    53   29   30 1
    54   29   49 1
    55   31   50 1
    56   31   51 1
    57   31   52 1
@<TRIPOS>SUBSTRUCTURE
     1    LIG27    1   GROUP 1   LIG 1
@<TRIPOS>MOLECULE
51419718
   53    58    1     0     0
SMALL
USER_CHARGES


@<TRIPOS>ATOM
      1 C1         15.6720  -12.0650    1.9940 C.2       1    LIG28    0.0000
      2 N1         16.8290  -12.4800    1.4820 N.am      1    LIG28    0.0000
      3 C2         16.7040  -13.0910    0.2210 C.3       1    LIG28    0.0000
      4 C3         15.1910  -13.0970   -0.0530 C.3       1    LIG28    0.0000
      5 C4         14.5230  -12.3360    1.1190 C.3       1    LIG28    0.0000
      6 C5         13.4680  -13.2320    1.8080 C.3       1    LIG28    0.0000
      7 C6         12.5730  -12.4510    2.7880 C.3       1    LIG28    0.0000
      8 N2         12.0630  -11.2390    2.2200 N.pl3     1    LIG28    0.0000
      9 C7         13.0450  -10.3370    1.7050 C.3       1    LIG28    0.0000
     10 C8         13.8620  -11.0350    0.6050 C.3       1    LIG28    0.0000
     11 O1         15.6020  -11.4990    3.1070 O.2       1    LIG28    0.0000
     12 C9          8.8390   -9.4880    2.7250 C.2       1    LIG28    0.0000
     13 C10        10.2020   -9.7550    2.7790 C.2       1    LIG28    0.0000
     14 C11        10.7180  -10.9460    2.2030 C.2       1    LIG28    0.0000
     15 C12         9.7730  -11.8330    1.6020 C.2       1    LIG28    0.0000
     16 C13         8.3970  -11.5000    1.6080 C.2       1    LIG28    0.0000
     17 N3          7.9620  -10.3410    2.1570 N.2       1    LIG28    0.0000
     18 N4          9.7020   -7.8530    3.8290 N.2       1    LIG28    0.0000
     19 N5          8.6000   -8.3270    3.3400 N.pl3     1    LIG28    0.0000
     20 C14        10.7130   -8.6900    3.5280 C.2       1    LIG28    0.0000
     21 N6         11.3120  -16.1040   -1.5710 N.pl3     1    LIG28    0.0000
     22 N7         11.8410  -15.4570   -2.5690 N.2       1    LIG28    0.0000
     23 C15        11.7470  -14.1320   -2.3470 C.2       1    LIG28    0.0000
     24 C16        11.1180  -13.9580   -1.1270 C.2       1    LIG28    0.0000
     25 C17        10.7700  -12.8090   -0.4010 C.2       1    LIG28    0.0000
     26 C18        10.1450  -12.9730    0.8580 C.2       1    LIG28    0.0000
     27 C19         9.8570  -14.2770    1.3360 C.2       1    LIG28    0.0000
     28 C20        10.2130  -15.4170    0.5860 C.2       1    LIG28    0.0000
     29 C21        10.8520  -15.2330   -0.6520 C.2       1    LIG28    0.0000
     30 C22        11.2610  -17.5220   -1.5190 C.3       1    LIG28    0.0000
     31 Cl1        12.2660   -8.4300    4.1370 Cl        1    LIG28    0.0000
     32 H1         17.6770  -12.3610    1.9360 H         1    LIG28    0.0000
     33 H2         17.2330  -12.5090   -0.5340 H         1    LIG28    0.0000
     34 H3         17.0930  -14.1100    0.2530 H         1    LIG28    0.0000
     35 H4         14.9860  -12.6130   -1.0090 H         1    LIG28    0.0000
     36 H5         14.8390  -14.1290   -0.0970 H         1    LIG28    0.0000
     37 H6         13.9610  -14.0430    2.3490 H         1    LIG28    0.0000
     38 H7         12.8410  -13.6810    1.0450 H         1    LIG28    0.0000
     39 H8         11.7730  -13.1060    3.1370 H         1    LIG28    0.0000
     40 H9         13.1760  -12.1840    3.6570 H         1    LIG28    0.0000
     41 H10        12.5880   -9.4420    1.2770 H         1    LIG28    0.0000
     42 H11        13.7280  -10.0400    2.4980 H         1    LIG28    0.0000
     43 H12        14.6250  -10.3480    0.2350 H         1    LIG28    0.0000
     44 H13        13.1920  -11.2780   -0.2200 H         1    LIG28    0.0000
     45 H14         7.7120  -12.1170    1.1670 H         1    LIG28    0.0000
     46 H15         7.7260   -7.9180    3.4370 H         1    LIG28    0.0000
     47 H16        12.0830  -13.3930   -2.9650 H         1    LIG28    0.0000
     48 H17        10.9740  -11.8800   -0.7750 H         1    LIG28    0.0000
     49 H18         9.3920  -14.4020    2.2370 H         1    LIG28    0.0000
     50 H19        10.0120  -16.3520    0.9380 H         1    LIG28    0.0000
     51 H20        10.7810  -17.8750   -0.6050 H         1    LIG28    0.0000
     52 H21        10.6980  -17.8920   -2.3760 H         1    LIG28    0.0000
     53 H22        12.2750  -17.9190   -1.5600 H         1    LIG28    0.0000
@<TRIPOS>BOND
     1    1    2 1
     2    1    5 1
     3    1   11 2
     4    2    3 1
     5    2   32 1
     6    3    4 1
     7    3   33 1
     8    3   34 1
     9    4    5 1
    10    4   35 1
    11    4   36 1
    12    5    6 1
    13    5   10 1
    14    6    7 1
    15    6   37 1
    16    6   38 1
    17    7    8 1
    18    7   39 1
    19    7   40 1
    20    8    9 1
    21    8   14 1
    22    9   10 1
    23    9   41 1
    24    9   42 1
    25   10   43 1
    26   10   44 1
    27   12   13 1
    28   12   17 2
    29   12   19 1
    30   13   14 2
    31   13   20 1
    32   14   15 1
    33   15   16 2
    34   15   26 1
    35   16   17 1
    36   16   45 1
    37   18   19 1
    38   18   20 2
    39   19   46 1
    40   20   31 1
    41   21   22 1
    42   21   29 1
    43   21   30 1
    44   22   23 2
    45   23   24 1
    46   23   47 1
    47   24   25 1
    48   24   29 2
    49   25   26 2
    50   25   48 1
    51   26   27 1
    52   27   28 2
    53   27   49 1
    54   28   29 1
    55   28   50 1
    56   30   51 1
    57   30   52 1
    58   30   53 1
@<TRIPOS>SUBSTRUCTURE
     1    LIG28    1   GROUP 1   LIG 1
@<TRIPOS>MOLECULE
50778677
   50    53    1     0     0
SMALL
USER_CHARGES


@<TRIPOS>ATOM
      1 O1          7.8920  -11.5580   -3.0460 O.3       1    LIG29    0.0000
      2 C1          6.8830   -9.1590    1.5070 C.3       1    LIG29    0.0000
      3 C2          7.4440  -10.5900    1.7610 C.3       1    LIG29    0.0000
      4 C3          7.5940  -10.9020   -0.7340 C.2       1    LIG29    0.0000
      5 C4          7.7700  -11.3930    0.5580 C.2       1    LIG29    0.0000
      6 C5          8.2800  -12.6950    0.5530 C.2       1    LIG29    0.0000
      7 S1          8.5440  -13.3140   -1.0450 S.3       1    LIG29    0.0000
      8 C6          7.9610  -11.8230   -1.7100 C.2       1    LIG29    0.0000
      9 C7          8.0160  -12.5390   -3.9840 C.2       1    LIG29    0.0000
     10 C8          6.7530   -8.7750    0.0890 C.2       1    LIG29    0.0000
     11 C9          7.0950   -9.6140   -0.9610 C.2       1    LIG29    0.0000
     12 S2          6.8280   -8.8820   -2.5080 S.3       1    LIG29    0.0000
     13 N1          6.2750   -7.4920   -1.7290 N.2       1    LIG29    0.0000
     14 C10         6.2840   -7.5600   -0.3880 C.2       1    LIG29    0.0000
     15 C11         8.5750  -13.4760    1.6810 C.2       1    LIG29    0.0000
     16 O2          8.3990  -13.0620    2.8480 O.2       1    LIG29    0.0000
     17 N2          9.0630  -14.7130    1.5250 N.am      1    LIG29    0.0000
     18 C12         7.3100  -13.7570   -3.9300 C.2       1    LIG29    0.0000
     19 C13         7.4600  -14.7170   -4.9430 C.2       1    LIG29    0.0000
     20 C14         8.3180  -14.4490   -6.0290 C.2       1    LIG29    0.0000
     21 N3          8.9710  -13.2550   -6.0570 N.2       1    LIG29    0.0000
     22 C15         8.8460  -12.3080   -5.0930 C.2       1    LIG29    0.0000
     23 C16         8.5130  -15.3720   -7.0750 C.2       1    LIG29    0.0000
     24 N4          9.3520  -15.0640   -8.0880 N.am      1    LIG29    0.0000
     25 O3          7.9260  -16.4790   -7.0810 O.2       1    LIG29    0.0000
     26 C17         9.6080  -15.9350   -9.1810 C.3       1    LIG29    0.0000
     27 C18        10.6460  -15.3180  -10.1380 C.3       1    LIG29    0.0000
     28 O4         10.1900  -14.0440  -10.5770 O.3       1    LIG29    0.0000
     29 C19        12.0000  -15.1410   -9.4320 C.3       1    LIG29    0.0000
     30 C20        10.8190  -16.2240  -11.3670 C.3       1    LIG29    0.0000
     31 H1          5.8980   -9.0900    1.9720 H         1    LIG29    0.0000
     32 H2          7.5410   -8.4410    1.9990 H         1    LIG29    0.0000
     33 H3          6.7070  -11.1400    2.3480 H         1    LIG29    0.0000
     34 H4          8.3500  -10.4930    2.3620 H         1    LIG29    0.0000
     35 H5          5.9780   -6.7970    0.2160 H         1    LIG29    0.0000
     36 H6          9.2670  -15.2490    2.3060 H         1    LIG29    0.0000
     37 H7          9.2130  -15.0690    0.6360 H         1    LIG29    0.0000
     38 H8          6.6800  -13.9450   -3.1500 H         1    LIG29    0.0000
     39 H9          6.9450  -15.5980   -4.8860 H         1    LIG29    0.0000
     40 H10         9.3600  -11.4310   -5.1740 H         1    LIG29    0.0000
     41 H11         9.7970  -14.2020   -8.0700 H         1    LIG29    0.0000
     42 H12         9.9860  -16.8890   -8.8090 H         1    LIG29    0.0000
     43 H13         8.6770  -16.1100   -9.7250 H         1    LIG29    0.0000
     44 H14        10.7940  -13.5920  -11.2020 H         1    LIG29    0.0000
     45 H15        12.7260  -14.7180  -10.1270 H         1    LIG29    0.0000
     46 H16        11.8910  -14.4690   -8.5810 H         1    LIG29    0.0000
     47 H17        12.3630  -16.1080   -9.0810 H         1    LIG29    0.0000
     48 H18        11.5500  -15.7880  -12.0480 H         1    LIG29    0.0000
     49 H19        11.1630  -17.2100  -11.0540 H         1    LIG29    0.0000
     50 H20         9.8650  -16.3250  -11.8860 H         1    LIG29    0.0000
@<TRIPOS>BOND
     1    1    8 1
     2    1    9 1
     3    2    3 1
     4    2   10 1
     5    2   31 1
     6    2   32 1
     7    3    5 1
     8    3   33 1
     9    3   34 1
    10    4    5 1
    11    4    8 2
    12    4   11 1
    13    5    6 2
    14    6    7 1
    15    6   15 1
    16    7    8 1
    17    9   18 2
    18    9   22 1
    19   10   11 2
    20   10   14 1
    21   11   12 1
    22   12   13 1
    23   13   14 2
    24   14   35 1
    25   15   16 2
    26   15   17 1
    27   17   36 1
    28   17   37 1
    29   18   19 1
    30   18   38 1
    31   19   20 2
    32   19   39 1
    33   20   21 1
    34   20   23 1
    35   21   22 2
    36   22   40 1
    37   23   24 1
    38   23   25 2
    39   24   26 1
    40   24   41 1
    41   26   27 1
    42   26   42 1
    43   26   43 1
    44   27   28 1
    45   27   29 1
    46   27   30 1
    47   28   44 1
    48   29   45 1
    49   29   46 1
    50   29   47 1
    51   30   48 1
    52   30   49 1
    53   30   50 1
@<TRIPOS>SUBSTRUCTURE
     1    LIG29    1   GROUP 1   LIG 1
@<TRIPOS>MOLECULE
50778692
   33    36    1     0     0
SMALL
USER_CHARGES


@<TRIPOS>ATOM
      1 O1          5.0030  -11.0950   -2.1840 O.3       1    LIG30    0.0000
      2 C1          6.4220   -7.2270    1.0580 C.3       1    LIG30    0.0000
      3 C2          7.6630   -8.0760    0.6530 C.3       1    LIG30    0.0000
      4 C3          6.1390   -9.5190   -0.7400 C.2       1    LIG30    0.0000
      5 C4          7.4120   -9.2130   -0.2670 C.2       1    LIG30    0.0000
      6 C5          8.3760  -10.0960   -0.7610 C.2       1    LIG30    0.0000
      7 S1          7.7130  -11.3010   -1.8180 S.3       1    LIG30    0.0000
      8 C6          6.1340  -10.6240   -1.5840 C.2       1    LIG30    0.0000
      9 C7          4.9690  -12.2910   -2.8370 C.2       1    LIG30    0.0000
     10 C8          5.1380   -7.6720    0.4830 C.2       1    LIG30    0.0000
     11 C9          5.0220   -8.7600   -0.3680 C.2       1    LIG30    0.0000
     12 S2          3.3890   -9.0330   -0.8750 S.3       1    LIG30    0.0000
     13 N1          2.9050   -7.7080    0.0480 N.2       1    LIG30    0.0000
     14 C10         3.8990   -7.0880    0.7030 C.2       1    LIG30    0.0000
     15 C11         9.7500  -10.0730   -0.4760 C.2       1    LIG30    0.0000
     16 O2         10.2620   -9.2190    0.2810 O.2       1    LIG30    0.0000
     17 N2         10.5610  -10.9880   -1.0210 N.am      1    LIG30    0.0000
     18 C12         5.4930  -13.4850   -2.3000 C.2       1    LIG30    0.0000
     19 C13         5.3990  -14.6910   -3.0130 C.2       1    LIG30    0.0000
     20 C14         4.7620  -14.6890   -4.2640 C.2       1    LIG30    0.0000
     21 N3          4.2500  -13.5330   -4.7540 N.2       1    LIG30    0.0000
     22 C15         4.3280  -12.3550   -4.0870 C.2       1    LIG30    0.0000
     23 H1          6.3340   -7.2460    2.1460 H         1    LIG30    0.0000
     24 H2          6.5960   -6.1950    0.7500 H         1    LIG30    0.0000
     25 H3          8.1140   -8.4690    1.5660 H         1    LIG30    0.0000
     26 H4          8.3860   -7.4080    0.1810 H         1    LIG30    0.0000
     27 H5          3.7570   -6.2720    1.2990 H         1    LIG30    0.0000
     28 H6         11.5090  -10.9690   -0.8200 H         1    LIG30    0.0000
     29 H7         10.2020  -11.6670   -1.6130 H         1    LIG30    0.0000
     30 H8          5.9430  -13.4780   -1.3840 H         1    LIG30    0.0000
     31 H9          5.7820  -15.5540   -2.6280 H         1    LIG30    0.0000
     32 H10         4.6810  -15.5540   -4.8000 H         1    LIG30    0.0000
     33 H11         3.9230  -11.5120   -4.4960 H         1    LIG30    0.0000
@<TRIPOS>BOND
     1    1    8 1
     2    1    9 1
     3    2    3 1
     4    2   10 1
     5    2   23 1
     6    2   24 1
     7    3    5 1
     8    3   25 1
     9    3   26 1
    10    4    5 1
    11    4    8 2
    12    4   11 1
    13    5    6 2
    14    6    7 1
    15    6   15 1
    16    7    8 1
    17    9   18 2
    18    9   22 1
    19   10   11 2
    20   10   14 1
    21   11   12 1
    22   12   13 1
    23   13   14 2
    24   14   27 1
    25   15   16 2
    26   15   17 1
    27   17   28 1
    28   17   29 1
    29   18   19 1
    30   18   30 1
    31   19   20 2
    32   19   31 1
    33   20   21 1
    34   20   32 1
    35   21   22 2
    36   22   33 1
@<TRIPOS>SUBSTRUCTURE
     1    LIG30    1   GROUP 1   LIG 1
@<TRIPOS>MOLECULE
50778250
   27    29    1     0     0
SMALL
USER_CHARGES


@<TRIPOS>ATOM
      1 O1          8.7600   -3.9450   -2.9230 O.3       1    LIG31    0.0000
      2 C1          6.3210   -6.3440    1.0550 C.3       1    LIG31    0.0000
      3 C2          7.5320   -7.1920    0.5670 C.3       1    LIG31    0.0000
      4 C3          7.9980   -5.4130   -1.1540 C.2       1    LIG31    0.0000
      5 C4          8.3170   -6.6320   -0.5610 C.2       1    LIG31    0.0000
      6 C5          9.4350   -7.2230   -1.1570 C.2       1    LIG31    0.0000
      7 S1         10.0960   -6.2760   -2.4510 S.3       1    LIG31    0.0000
      8 C6          8.8660   -5.0840   -2.1900 C.2       1    LIG31    0.0000
      9 C7          9.7040   -3.7190   -3.9700 C.3       1    LIG31    0.0000
     10 C8          6.1070   -5.0750    0.3340 C.2       1    LIG31    0.0000
     11 C9          6.9120   -4.6490   -0.7120 C.2       1    LIG31    0.0000
     12 S2          6.4090   -3.1230   -1.3570 S.3       1    LIG31    0.0000
     13 N1          5.1530   -3.0880   -0.2320 N.2       1    LIG31    0.0000
     14 C10         5.1020   -4.1520    0.5850 C.2       1    LIG31    0.0000
     15 C11        10.0160   -8.4500   -0.8010 C.2       1    LIG31    0.0000
     16 O2          9.5670   -9.1610    0.1240 O.2       1    LIG31    0.0000
     17 N2         11.0910   -8.8950   -1.4630 N.am      1    LIG31    0.0000
     18 H1          5.4180   -6.9490    0.9580 H         1    LIG31    0.0000
     19 H2          6.4640   -6.1170    2.1120 H         1    LIG31    0.0000
     20 H3          7.1570   -8.1720    0.2680 H         1    LIG31    0.0000
     21 H4          8.2060   -7.3320    1.4140 H         1    LIG31    0.0000
     22 H5          9.4750   -2.7680   -4.4510 H         1    LIG31    0.0000
     23 H6         10.7160   -3.6730   -3.5640 H         1    LIG31    0.0000
     24 H7          9.6440   -4.5140   -4.7140 H         1    LIG31    0.0000
     25 H8          4.3980   -4.2690    1.3140 H         1    LIG31    0.0000
     26 H9         11.4900   -9.7430   -1.2150 H         1    LIG31    0.0000
     27 H10        11.4690   -8.3710   -2.1870 H         1    LIG31    0.0000
@<TRIPOS>BOND
     1    1    8 1
     2    1    9 1
     3    2    3 1
     4    2   10 1
     5    2   18 1
     6    2   19 1
     7    3    5 1
     8    3   20 1
     9    3   21 1
    10    4    5 1
    11    4    8 2
    12    4   11 1
    13    5    6 2
    14    6    7 1
    15    6   15 1
    16    7    8 1
    17    9   22 1
    18    9   23 1
    19    9   24 1
    20   10   11 2
    21   10   14 1
    22   11   12 1
    23   12   13 1
    24   13   14 2
    25   14   25 1
    26   15   16 2
    27   15   17 1
    28   17   26 1
    29   17   27 1
@<TRIPOS>SUBSTRUCTURE
     1    LIG31    1   GROUP 1   LIG 1
@<TRIPOS>MOLECULE
51419723
   57    62    1     0     0
SMALL
USER_CHARGES


@<TRIPOS>ATOM
      1 C1         16.4610  -12.4490    0.3780 C.2       1    LIG32    0.0000
      2 N1         16.6930  -13.7620    0.5910 N.am      1    LIG32    0.0000
      3 C2         15.7200  -14.6930    1.0450 C.3       1    LIG32    0.0000
      4 C3         14.4670  -14.0260    1.6320 C.3       1    LIG32    0.0000
      5 C4         14.0270  -12.8860    0.7060 C.3       1    LIG32    0.0000
      6 C5         15.1330  -11.8080    0.5610 C.3       1    LIG32    0.0000
      7 C6         15.1950  -10.8900    1.8070 C.3       1    LIG32    0.0000
      8 C7         13.9800   -9.9500    1.9110 C.3       1    LIG32    0.0000
      9 N2         13.7150   -9.2520    0.6870 N.2       1    LIG32    0.0000
     10 C8         13.5440  -10.0860   -0.4630 C.3       1    LIG32    0.0000
     11 C9         14.8120  -10.9300   -0.6740 C.3       1    LIG32    0.0000
     12 O1         17.4440  -11.7520    0.0400 O.2       1    LIG32    0.0000
     13 C10        12.0530   -6.0130    0.0240 C.2       1    LIG32    0.0000
     14 C11        12.3470   -7.3740   -0.0090 C.2       1    LIG32    0.0000
     15 C12        13.4850   -7.8910    0.6540 C.2       1    LIG32    0.0000
     16 C13        14.3260   -6.9430    1.3150 C.2       1    LIG32    0.0000
     17 C14        13.9610   -5.5730    1.3190 C.2       1    LIG32    0.0000
     18 N3         12.8450   -5.1400    0.6810 N.2       1    LIG32    0.0000
     19 N4         10.9130   -5.7810   -0.6410 N.pl3     1    LIG32    0.0000
     20 C15        11.2980   -7.9690   -0.7060 C.2       1    LIG32    0.0000
     21 C16        10.4330   -6.9510   -1.0930 C.2       1    LIG32    0.0000
     22 N5         19.4000   -8.3260    3.0770 N.pl3     1    LIG32    0.0000
     23 N6         19.9020   -8.7790    1.9640 N.2       1    LIG32    0.0000
     24 C17        18.9840   -8.6830    0.9840 C.2       1    LIG32    0.0000
     25 C18        17.8410   -8.1310    1.5360 C.2       1    LIG32    0.0000
     26 C19        16.5870   -7.8190    0.9900 C.2       1    LIG32    0.0000
     27 C20        15.5950   -7.2770    1.8430 C.2       1    LIG32    0.0000
     28 C21        15.9030   -7.0380    3.2080 C.2       1    LIG32    0.0000
     29 C22        17.1710   -7.3590    3.7340 C.2       1    LIG32    0.0000
     30 C23        18.1330   -7.9140    2.8740 C.2       1    LIG32    0.0000
     31 C24        20.1310   -8.3020    4.2940 C.3       1    LIG32    0.0000
     32 H1         17.5880  -14.0900    0.4120 H         1    LIG32    0.0000
     33 H2         15.4310  -15.3300    0.2080 H         1    LIG32    0.0000
     34 H3         16.1680  -15.3180    1.8180 H         1    LIG32    0.0000
     35 H4         13.6670  -14.7630    1.7130 H         1    LIG32    0.0000
     36 H5         14.6900  -13.6340    2.6240 H         1    LIG32    0.0000
     37 H6         13.8050  -13.3120   -0.2740 H         1    LIG32    0.0000
     38 H7         13.1130  -12.4470    1.1010 H         1    LIG32    0.0000
     39 H8         16.0950  -10.2820    1.7660 H         1    LIG32    0.0000
     40 H9         15.2460  -11.4950    2.7130 H         1    LIG32    0.0000
     41 H10        13.1040  -10.5540    2.1450 H         1    LIG32    0.0000
     42 H11        14.1290   -9.2740    2.7540 H         1    LIG32    0.0000
     43 H12        12.6830  -10.7400   -0.3230 H         1    LIG32    0.0000
     44 H13        13.3970   -9.5000   -1.3720 H         1    LIG32    0.0000
     45 H14        14.6750  -11.5620   -1.5530 H         1    LIG32    0.0000
     46 H15        15.6400  -10.2450   -0.8660 H         1    LIG32    0.0000
     47 H16        14.5550   -4.8810    1.7780 H         1    LIG32    0.0000
     48 H17        10.4950   -4.9130   -0.7570 H         1    LIG32    0.0000
     49 H18        11.1700   -8.9640   -0.8900 H         1    LIG32    0.0000
     50 H19         9.5680   -7.0740   -1.6200 H         1    LIG32    0.0000
     51 H20        19.1080   -8.9720    0.0130 H         1    LIG32    0.0000
     52 H21        16.3980   -7.9940    0.0010 H         1    LIG32    0.0000
     53 H22        15.1980   -6.6360    3.8290 H         1    LIG32    0.0000
     54 H23        17.3810   -7.1940    4.7180 H         1    LIG32    0.0000
     55 H24        19.5380   -7.8920    5.1120 H         1    LIG32    0.0000
     56 H25        20.4310   -9.3180    4.5500 H         1    LIG32    0.0000
     57 H26        21.0230   -7.6890    4.1630 H         1    LIG32    0.0000
@<TRIPOS>BOND
     1    1    2 1
     2    1    6 1
     3    1   12 2
     4    2    3 1
     5    2   32 1
     6    3    4 1
     7    3   33 1
     8    3   34 1
     9    4    5 1
    10    4   35 1
    11    4   36 1
    12    5    6 1
    13    5   37 1
    14    5   38 1
    15    6    7 1
    16    6   11 1
    17    7    8 1
    18    7   39 1
    19    7   40 1
    20    8    9 1
    21    8   41 1
    22    8   42 1
    23    9   10 1
    24    9   15 1
    25   10   11 1
    26   10   43 1
    27   10   44 1
    28   11   45 1
    29   11   46 1
    30   13   14 1
    31   13   18 2
    32   13   19 1
    33   14   15 2
    34   14   20 1
    35   15   16 1
    36   16   17 2
    37   16   27 1
    38   17   18 1
    39   17   47 1
    40   19   21 1
    41   19   48 1
    42   20   21 2
    43   20   49 1
    44   21   50 1
    45   22   23 1
    46   22   30 1
    47   22   31 1
    48   23   24 2
    49   24   25 1
    50   24   51 1
    51   25   26 1
    52   25   30 2
    53   26   27 2
    54   26   52 1
    55   27   28 1
    56   28   29 2
    57   28   53 1
    58   29   30 1
    59   29   54 1
    60   31   55 1
    61   31   56 1
    62   31   57 1
@<TRIPOS>SUBSTRUCTURE
     1    LIG32    1   GROUP 1   LIG 1
@<TRIPOS>MOLECULE
692591
   37    40    1     0     0
SMALL
USER_CHARGES


@<TRIPOS>ATOM
      1 C1         -2.0690    2.5790    0.2360 C.2       1    LIG33    0.0000
      2 C2         -1.2330    1.4510    0.2790 C.2       1    LIG33    0.0000
      3 C3          0.1330    1.6330    0.5900 C.2       1    LIG33    0.0000
      4 C4          0.6320    2.9240    0.8480 C.2       1    LIG33    0.0000
      5 C5         -0.2500    4.0140    0.7900 C.2       1    LIG33    0.0000
      6 N1         -1.5570    3.8100    0.4890 N.2       1    LIG33    0.0000
      7 O1         -1.7520    0.2060    0.0200 O.3       1    LIG33    0.0000
      8 C6         -0.9780   -1.0210    0.0510 C.3       1    LIG33    0.0000
      9 C7          0.4480   -0.7780    0.3760 C.2       1    LIG33    0.0000
     10 C8          0.9470    0.4910    0.6280 C.2       1    LIG33    0.0000
     11 C9          1.5100   -1.6650    0.4980 C.2       1    LIG33    0.0000
     12 C10         2.6330   -0.9070    0.8220 C.2       1    LIG33    0.0000
     13 N2          2.2600    0.3840    0.8920 N.pl3     1    LIG33    0.0000
     14 C11         3.9300   -1.3830    1.0400 C.2       1    LIG33    0.0000
     15 O2          4.2150   -2.7000    0.9510 O.3       1    LIG33    0.0000
     16 O3          4.8520   -0.5890    1.3240 O.2       1    LIG33    0.0000
     17 C12        -1.0950   -1.6840   -1.3400 C.3       1    LIG33    0.0000
     18 C13        -2.5600   -2.0030   -1.6800 C.3       1    LIG33    0.0000
     19 C14        -3.1720   -2.9190   -0.6100 C.3       1    LIG33    0.0000
     20 C15        -3.0720   -2.2660    0.7760 C.3       1    LIG33    0.0000
     21 C16        -1.6070   -1.9470    1.1150 C.3       1    LIG33    0.0000
     22 H1         -3.0590    2.4730    0.0140 H         1    LIG33    0.0000
     23 H2          1.6170    3.0750    1.0740 H         1    LIG33    0.0000
     24 H3          0.0900    4.9590    0.9730 H         1    LIG33    0.0000
     25 H4          1.4710   -2.6780    0.3740 H         1    LIG33    0.0000
     26 H5          2.8530    1.1230    1.1030 H         1    LIG33    0.0000
     27 H6          5.1550   -2.9090    1.1250 H         1    LIG33    0.0000
     28 H7         -0.6990   -1.0090   -2.1010 H         1    LIG33    0.0000
     29 H8         -0.5230   -2.6130   -1.3610 H         1    LIG33    0.0000
     30 H9         -3.1320   -1.0750   -1.7330 H         1    LIG33    0.0000
     31 H10        -2.6040   -2.5010   -2.6480 H         1    LIG33    0.0000
     32 H11        -2.6400   -3.8720   -0.6010 H         1    LIG33    0.0000
     33 H12        -4.2200   -3.1000   -0.8480 H         1    LIG33    0.0000
     34 H13        -3.6570   -1.3450    0.7870 H         1    LIG33    0.0000
     35 H14        -3.4740   -2.9480    1.5250 H         1    LIG33    0.0000
     36 H15        -1.0510   -2.8850    1.1710 H         1    LIG33    0.0000
     37 H16        -1.5720   -1.4590    2.0900 H         1    LIG33    0.0000
@<TRIPOS>BOND
     1    1    2 2
     2    1    6 1
     3    1   22 1
     4    2    3 1
     5    2    7 1
     6    3    4 2
     7    3   10 1
     8    4    5 1
     9    4   23 1
    10    5    6 2
    11    5   24 1
    12    7    8 1
    13    8    9 1
    14    8   17 1
    15    8   21 1
    16    9   10 2
    17    9   11 1
    18   10   13 1
    19   11   12 2
    20   11   25 1
    21   12   13 1
    22   12   14 1
    23   13   26 1
    24   14   15 1
    25   14   16 2
    26   15   27 1
    27   17   18 1
    28   17   28 1
    29   17   29 1
    30   18   19 1
    31   18   30 1
    32   18   31 1
    33   19   20 1
    34   19   32 1
    35   19   33 1
    36   20   21 1
    37   20   34 1
    38   20   35 1
    39   21   36 1
    40   21   37 1
@<TRIPOS>SUBSTRUCTURE
     1    LIG33    1   GROUP 1   LIG 1
@<TRIPOS>MOLECULE
692697
   49    52    1     0     0
SMALL
USER_CHARGES


@<TRIPOS>ATOM
      1 C1         -0.3110    3.2950    2.4020 C.2       1    LIG34    0.0000
      2 C2          0.6040    2.6080    1.5890 C.2       1    LIG34    0.0000
      3 C3          1.9810    2.9470    1.6260 C.2       1    LIG34    0.0000
      4 C4          2.3870    3.9520    2.5320 C.2       1    LIG34    0.0000
      5 C5          1.4360    4.6040    3.3320 C.2       1    LIG34    0.0000
      6 N1          0.1290    4.2620    3.2420 N.2       1    LIG34    0.0000
      7 O1          0.1270    1.6440    0.7430 O.3       1    LIG34    0.0000
      8 C6          0.9810    0.6460    0.1460 C.3       1    LIG34    0.0000
      9 C7          2.3830    1.1160    0.0710 C.2       1    LIG34    0.0000
     10 C8          2.8630    2.2240    0.7660 C.2       1    LIG34    0.0000
     11 C9          3.4460    0.5400   -0.5960 C.2       1    LIG34    0.0000
     12 C10         4.5670    1.3200   -0.3380 C.2       1    LIG34    0.0000
     13 N2          4.1880    2.3550    0.4630 N.pl3     1    LIG34    0.0000
     14 C11         0.9000   -0.6420    0.9900 C.3       1    LIG34    0.0000
     15 C12        -0.5360   -1.1870    1.0180 C.3       1    LIG34    0.0000
     16 N3         -1.0210   -1.4640   -0.3520 N.3       1    LIG34    0.0000
     17 C13        -1.0070   -0.2210   -1.1510 C.3       1    LIG34    0.0000
     18 C14         0.4170    0.3450   -1.2570 C.3       1    LIG34    0.0000
     19 C15        -2.3990   -2.0160   -0.3540 C.3       1    LIG34    0.0000
     20 C16         5.0530    3.4320    0.8450 C.3       1    LIG34    0.0000
     21 C17         5.8210    3.0950    2.1320 C.3       1    LIG34    0.0000
     22 C18         5.8500    1.0190   -0.8500 C.2       1    LIG34    0.0000
     23 N4          6.0590   -0.0390   -1.6500 N.am      1    LIG34    0.0000
     24 O2          6.8550    1.7050   -0.5700 O.2       1    LIG34    0.0000
     25 C19        -2.5210   -3.4500    0.2080 C.3       1    LIG34    0.0000
     26 F1         -3.7140   -3.9960   -0.1960 F         1    LIG34    0.0000
     27 F2         -1.5040   -4.2460   -0.2590 F         1    LIG34    0.0000
     28 F3         -2.5140   -3.4580    1.5800 F         1    LIG34    0.0000
     29 H1         -1.3040    3.0650    2.3650 H         1    LIG34    0.0000
     30 H2          3.3620    4.2060    2.6500 H         1    LIG34    0.0000
     31 H3          1.7280    5.3310    3.9870 H         1    LIG34    0.0000
     32 H4          3.4080   -0.3080   -1.1640 H         1    LIG34    0.0000
     33 H5          1.5520   -1.4070    0.5660 H         1    LIG34    0.0000
     34 H6          1.2170   -0.4330    2.0130 H         1    LIG34    0.0000
     35 H7         -0.5170   -2.1060    1.6000 H         1    LIG34    0.0000
     36 H8         -1.1910   -0.4670    1.5130 H         1    LIG34    0.0000
     37 H9         -1.3610   -0.4310   -2.1610 H         1    LIG34    0.0000
     38 H10        -1.6620    0.5260   -0.6990 H         1    LIG34    0.0000
     39 H11         0.3930    1.2620   -1.8480 H         1    LIG34    0.0000
     40 H12         1.0430   -0.3910   -1.7650 H         1    LIG34    0.0000
     41 H13        -3.0640   -1.3530    0.2030 H         1    LIG34    0.0000
     42 H14        -2.7440   -2.0470   -1.3890 H         1    LIG34    0.0000
     43 H15         5.7730    3.6440    0.0560 H         1    LIG34    0.0000
     44 H16         4.4920    4.3550    0.9700 H         1    LIG34    0.0000
     45 H17         6.4170    3.9570    2.4330 H         1    LIG34    0.0000
     46 H18         5.1260    2.8420    2.9320 H         1    LIG34    0.0000
     47 H19         6.4830    2.2470    1.9550 H         1    LIG34    0.0000
     48 H20         6.9530   -0.2220   -1.9760 H         1    LIG34    0.0000
     49 H21         5.3220   -0.6160   -1.9010 H         1    LIG34    0.0000
@<TRIPOS>BOND
     1    1    2 2
     2    1    6 1
     3    1   29 1
     4    2    3 1
     5    2    7 1
     6    3    4 2
     7    3   10 1
     8    4    5 1
     9    4   30 1
    10    5    6 2
    11    5   31 1
    12    7    8 1
    13    8    9 1
    14    8   14 1
    15    8   18 1
    16    9   10 2
    17    9   11 1
    18   10   13 1
    19   11   12 2
    20   11   32 1
    21   12   13 1
    22   12   22 1
    23   13   20 1
    24   14   15 1
    25   14   33 1
    26   14   34 1
    27   15   16 1
    28   15   35 1
    29   15   36 1
    30   16   17 1
    31   16   19 1
    32   17   18 1
    33   17   37 1
    34   17   38 1
    35   18   39 1
    36   18   40 1
    37   19   25 1
    38   19   41 1
    39   19   42 1
    40   20   21 1
    41   20   43 1
    42   20   44 1
    43   21   45 1
    44   21   46 1
    45   21   47 1
    46   22   23 1
    47   22   24 2
    48   23   48 1
    49   23   49 1
    50   25   26 1
    51   25   27 1
    52   25   28 1
@<TRIPOS>SUBSTRUCTURE
     1    LIG34    1   GROUP 1   LIG 1
@<TRIPOS>MOLECULE
51122123
   60    64    1     0     0
SMALL
USER_CHARGES


@<TRIPOS>ATOM
      1 C1          8.0040   -4.5950    0.6400 C.2       1    LIG35    0.0000
      2 C2          7.9930   -6.0040    0.6210 C.2       1    LIG35    0.0000
      3 C3          9.2160   -6.7020    0.6440 C.2       1    LIG35    0.0000
      4 C4          9.2170   -3.8900    0.6580 C.2       1    LIG35    0.0000
      5 C5         10.4420   -4.5850    0.6590 C.2       1    LIG35    0.0000
      6 C6         10.4420   -6.0070    0.6550 C.2       1    LIG35    0.0000
      7 C7         11.6690   -6.7010    0.6530 C.2       1    LIG35    0.0000
      8 C8         12.8840   -5.9960    0.6340 C.2       1    LIG35    0.0000
      9 C9         12.8860   -4.5880    0.6200 C.2       1    LIG35    0.0000
     10 C10        11.6650   -3.8870    0.6510 C.2       1    LIG35    0.0000
     11 C11        14.0920   -3.8770    0.5410 C.2       1    LIG35    0.0000
     12 N1         14.5880   -3.3660   -0.6320 N.am      1    LIG35    0.0000
     13 O1         14.7030   -3.6930    1.6170 O.2       1    LIG35    0.0000
     14 C12        13.9730   -3.5580   -1.9130 C.3       1    LIG35    0.0000
     15 C13        14.9790   -4.2340   -2.8570 C.3       1    LIG35    0.0000
     16 N2         16.1960   -3.4080   -2.9550 N.3       1    LIG35    0.0000
     17 C14        16.8000   -3.2590   -1.6160 C.3       1    LIG35    0.0000
     18 C15        15.7960   -2.6010   -0.6560 C.3       1    LIG35    0.0000
     19 C16        17.1590   -4.0380   -3.8740 C.3       1    LIG35    0.0000
     20 C17         6.7120   -6.7370    0.5690 C.3       1    LIG35    0.0000
     21 C18         5.9150   -6.4710   -0.7250 C.3       1    LIG35    0.0000
     22 N3          6.6630   -6.7900   -1.8950 N.pl3     1    LIG35    0.0000
     23 C19         6.2140   -6.5400   -3.1510 C.2       1    LIG35    0.0000
     24 N4          5.2030   -5.9620   -5.6360 N.2       1    LIG35    0.0000
     25 C20         4.4890   -5.6620   -4.5290 C.2       1    LIG35    0.0000
     26 N5          5.0000   -5.9540   -3.3110 N.2       1    LIG35    0.0000
     27 C21         6.4200   -6.5460   -5.5550 C.2       1    LIG35    0.0000
     28 C22         6.9840   -6.8600   -4.2920 C.2       1    LIG35    0.0000
     29 C23         8.2600   -7.4620   -4.2370 C.2       1    LIG35    0.0000
     30 C24         8.9630   -7.7560   -5.4260 C.2       1    LIG35    0.0000
     31 C25         8.3870   -7.4450   -6.6740 C.2       1    LIG35    0.0000
     32 C26         7.1220   -6.8400   -6.7360 C.2       1    LIG35    0.0000
     33 C27        10.1380   -8.3100   -5.3780 C.1       1    LIG35    0.0000
     34 N6         11.1760   -8.7990   -5.3420 N.1       1    LIG35    0.0000
     35 H1          7.1230   -4.0780    0.6390 H         1    LIG35    0.0000
     36 H2          9.2090   -7.7240    0.6420 H         1    LIG35    0.0000
     37 H3          9.2010   -2.8690    0.6660 H         1    LIG35    0.0000
     38 H4         11.6860   -7.7220    0.6550 H         1    LIG35    0.0000
     39 H5         13.7640   -6.5150    0.6180 H         1    LIG35    0.0000
     40 H6         11.6670   -2.8640    0.6470 H         1    LIG35    0.0000
     41 H7         13.0740   -4.1730   -1.8760 H         1    LIG35    0.0000
     42 H8         13.7010   -2.5860   -2.3280 H         1    LIG35    0.0000
     43 H9         15.2260   -5.2250   -2.4690 H         1    LIG35    0.0000
     44 H10        14.5250   -4.3400   -3.8430 H         1    LIG35    0.0000
     45 H11        17.0850   -4.2360   -1.2220 H         1    LIG35    0.0000
     46 H12        17.6870   -2.6280   -1.6830 H         1    LIG35    0.0000
     47 H13        15.5720   -1.5950   -1.0140 H         1    LIG35    0.0000
     48 H14        16.2620   -2.5180    0.3280 H         1    LIG35    0.0000
     49 H15        18.0530   -3.4190   -3.9510 H         1    LIG35    0.0000
     50 H16        17.4400   -5.0280   -3.5120 H         1    LIG35    0.0000
     51 H17        16.7140   -4.1320   -4.8650 H         1    LIG35    0.0000
     52 H18         6.8820   -7.8120    0.6530 H         1    LIG35    0.0000
     53 H19         6.1030   -6.4300    1.4210 H         1    LIG35    0.0000
     54 H20         5.0130   -7.0840   -0.7020 H         1    LIG35    0.0000
     55 H21         5.6190   -5.4200   -0.7500 H         1    LIG35    0.0000
     56 H22         7.5400   -7.1880   -1.7860 H         1    LIG35    0.0000
     57 H23         3.5740   -5.2190   -4.6130 H         1    LIG35    0.0000
     58 H24         8.6750   -7.6870   -3.3300 H         1    LIG35    0.0000
     59 H25         8.8800   -7.6520   -7.5460 H         1    LIG35    0.0000
     60 H26         6.7140   -6.6150   -7.6440 H         1    LIG35    0.0000
@<TRIPOS>BOND
     1    1    2 2
     2    1    4 1
     3    1   35 1
     4    2    3 1
     5    2   20 1
     6    3    6 2
     7    3   36 1
     8    4    5 2
     9    4   37 1
    10    5    6 1
    11    5   10 1
    12    6    7 1
    13    7    8 2
    14    7   38 1
    15    8    9 1
    16    8   39 1
    17    9   10 2
    18    9   11 1
    19   10   40 1
    20   11   12 1
    21   11   13 2
    22   12   14 1
    23   12   18 1
    24   14   15 1
    25   14   41 1
    26   14   42 1
    27   15   16 1
    28   15   43 1
    29   15   44 1
    30   16   17 1
    31   16   19 1
    32   17   18 1
    33   17   45 1
    34   17   46 1
    35   18   47 1
    36   18   48 1
    37   19   49 1
    38   19   50 1
    39   19   51 1
    40   20   21 1
    41   20   52 1
    42   20   53 1
    43   21   22 1
    44   21   54 1
    45   21   55 1
    46   22   23 1
    47   22   56 1
    48   23   26 1
    49   23   28 2
    50   24   25 1
    51   24   27 2
    52   25   26 2
    53   25   57 1
    54   27   28 1
    55   27   32 1
    56   28   29 1
    57   29   30 2
    58   29   58 1
    59   30   31 1
    60   30   33 1
    61   31   32 2
    62   31   59 1
    63   32   60 1
    64   33   34 3
@<TRIPOS>SUBSTRUCTURE
     1    LIG35    1   GROUP 1   LIG 1
@<TRIPOS>MOLECULE
692700
   42    45    1     0     0
SMALL
USER_CHARGES


@<TRIPOS>ATOM
      1 C1         -0.7790    1.5950    2.7670 C.2       1    LIG36    0.0000
      2 C2         -0.0450    1.0160    1.7200 C.2       1    LIG36    0.0000
      3 C3          1.1420    1.6400    1.2560 C.2       1    LIG36    0.0000
      4 C4          1.5170    2.8640    1.8520 C.2       1    LIG36    0.0000
      5 C5          0.7460    3.4080    2.8920 C.2       1    LIG36    0.0000
      6 N1         -0.3660    2.7620    3.3160 N.2       1    LIG36    0.0000
      7 O1         -0.4820   -0.1700    1.1960 O.3       1    LIG36    0.0000
      8 C6         -0.0370   -0.6650   -0.0830 C.3       1    LIG36    0.0000
      9 C7          1.2770   -0.0910   -0.4540 C.2       1    LIG36    0.0000
     10 C8          1.8530    1.0000    0.1940 C.2       1    LIG36    0.0000
     11 C9          2.1060   -0.4500   -1.4990 C.2       1    LIG36    0.0000
     12 C10         3.2070    0.3990   -1.4620 C.2       1    LIG36    0.0000
     13 N2          3.0520    1.2480   -0.4090 N.pl3     1    LIG36    0.0000
     14 C11         0.0410   -2.2030    0.0310 C.3       1    LIG36    0.0000
     15 C12        -1.3480   -2.7860    0.3310 C.3       1    LIG36    0.0000
     16 O2         -2.2740   -2.3570   -0.6660 O.3       1    LIG36    0.0000
     17 C13        -2.4410   -0.9480   -0.8050 C.3       1    LIG36    0.0000
     18 C14        -1.0930   -0.2970   -1.1480 C.3       1    LIG36    0.0000
     19 C15         4.0450    2.1900    0.0150 C.3       1    LIG36    0.0000
     20 C16         4.2630    0.3330   -2.3990 C.2       1    LIG36    0.0000
     21 N3          4.2770   -0.5810   -3.3830 N.am      1    LIG36    0.0000
     22 O3          5.2250    1.1300   -2.3740 O.2       1    LIG36    0.0000
     23 C17         3.8880    3.5280   -0.7220 C.3       1    LIG36    0.0000
     24 H1         -1.6250    1.1400    3.1130 H         1    LIG36    0.0000
     25 H2          2.3240    3.3910    1.5340 H         1    LIG36    0.0000
     26 H3          1.0180    4.2910    3.3240 H         1    LIG36    0.0000
     27 H4          1.9310   -1.1950   -2.1730 H         1    LIG36    0.0000
     28 H5          0.3960   -2.6320   -0.9070 H         1    LIG36    0.0000
     29 H6          0.7260   -2.4820    0.8330 H         1    LIG36    0.0000
     30 H7         -1.2930   -3.8750    0.3250 H         1    LIG36    0.0000
     31 H8         -1.6850   -2.4530    1.3140 H         1    LIG36    0.0000
     32 H9         -3.1530   -0.7480   -1.6060 H         1    LIG36    0.0000
     33 H10        -2.8260   -0.5290    0.1250 H         1    LIG36    0.0000
     34 H11        -1.2210    0.7860   -1.1880 H         1    LIG36    0.0000
     35 H12        -0.7750   -0.6540   -2.1290 H         1    LIG36    0.0000
     36 H13         4.0030    2.3440    1.0910 H         1    LIG36    0.0000
     37 H14         5.0460    1.8030   -0.1750 H         1    LIG36    0.0000
     38 H15         5.0140   -0.5940   -4.0120 H         1    LIG36    0.0000
     39 H16         3.5570   -1.2240   -3.4640 H         1    LIG36    0.0000
     40 H17         4.6110    4.2440   -0.3310 H         1    LIG36    0.0000
     41 H18         4.0680    3.3850   -1.7880 H         1    LIG36    0.0000
     42 H19         2.8810    3.9210   -0.5820 H         1    LIG36    0.0000
@<TRIPOS>BOND
     1    1    2 2
     2    1    6 1
     3    1   24 1
     4    2    3 1
     5    2    7 1
     6    3    4 2
     7    3   10 1
     8    4    5 1
     9    4   25 1
    10    5    6 2
    11    5   26 1
    12    7    8 1
    13    8    9 1
    14    8   14 1
    15    8   18 1
    16    9   10 2
    17    9   11 1
    18   10   13 1
    19   11   12 2
    20   11   27 1
    21   12   13 1
    22   12   20 1
    23   13   19 1
    24   14   15 1
    25   14   28 1
    26   14   29 1
    27   15   16 1
    28   15   30 1
    29   15   31 1
    30   16   17 1
    31   17   18 1
    32   17   32 1
    33   17   33 1
    34   18   34 1
    35   18   35 1
    36   19   23 1
    37   19   36 1
    38   19   37 1
    39   20   21 1
    40   20   22 2
    41   21   38 1
    42   21   39 1
    43   23   40 1
    44   23   41 1
    45   23   42 1
@<TRIPOS>SUBSTRUCTURE
     1    LIG36    1   GROUP 1   LIG 1
@<TRIPOS>MOLECULE
51419709
   53    58    1     0     0
SMALL
USER_CHARGES


@<TRIPOS>ATOM
      1 C1         15.5690  -11.4950    0.5330 C.2       1    LIG37    0.0000
      2 N1         15.7980  -12.7610    0.1890 N.am      1    LIG37    0.0000
      3 C2         14.6670  -13.4210   -0.3250 C.3       1    LIG37    0.0000
      4 C3         13.5290  -12.3960   -0.1820 C.3       1    LIG37    0.0000
      5 C4         14.1810  -11.0750    0.2940 C.3       1    LIG37    0.0000
      6 C5         13.4880  -10.5620    1.5760 C.3       1    LIG37    0.0000
      7 C6         13.9620   -9.1550    1.9830 C.3       1    LIG37    0.0000
      8 N2         13.8180   -8.2470    0.8810 N.pl3     1    LIG37    0.0000
      9 C7         14.5470   -8.6260   -0.2940 C.3       1    LIG37    0.0000
     10 C8         14.0750   -9.9960   -0.8070 C.3       1    LIG37    0.0000
     11 O1         16.4710  -10.7590    0.9890 O.2       1    LIG37    0.0000
     12 C9         11.3590   -5.7040   -0.1690 C.2       1    LIG37    0.0000
     13 C10        12.2410   -6.7760   -0.2070 C.2       1    LIG37    0.0000
     14 C11        13.0110   -7.1230    0.9270 C.2       1    LIG37    0.0000
     15 C12        12.8680   -6.2900    2.0830 C.2       1    LIG37    0.0000
     16 C13        11.9380   -5.2170    2.0460 C.2       1    LIG37    0.0000
     17 N3         11.2090   -4.9460    0.9350 N.2       1    LIG37    0.0000
     18 C14        11.2230   -6.6370   -2.1050 C.2       1    LIG37    0.0000
     19 N4         10.7490   -5.6320   -1.3540 N.pl3     1    LIG37    0.0000
     20 N5         12.1310   -7.3550   -1.4160 N.2       1    LIG37    0.0000
     21 N6         16.3680   -6.6980    6.3820 N.pl3     1    LIG37    0.0000
     22 N7         17.5010   -6.7220    5.7420 N.2       1    LIG37    0.0000
     23 C15        17.2720   -6.6340    4.4180 C.2       1    LIG37    0.0000
     24 C16        15.9030   -6.5510    4.2360 C.2       1    LIG37    0.0000
     25 C17        15.1100   -6.4450    3.0840 C.2       1    LIG37    0.0000
     26 C18        13.7010   -6.3900    3.2300 C.2       1    LIG37    0.0000
     27 C19        13.1410   -6.4250    4.5360 C.2       1    LIG37    0.0000
     28 C20        13.9580   -6.5280    5.6800 C.2       1    LIG37    0.0000
     29 C21        15.3500   -6.5930    5.5060 C.2       1    LIG37    0.0000
     30 C22        16.2840   -6.7770    7.7970 C.3       1    LIG37    0.0000
     31 H1         16.6700  -13.1770    0.2670 H         1    LIG37    0.0000
     32 H2         14.8260  -13.6800   -1.3720 H         1    LIG37    0.0000
     33 H3         14.4520  -14.3180    0.2580 H         1    LIG37    0.0000
     34 H4         13.0200  -12.2690   -1.1380 H         1    LIG37    0.0000
     35 H5         12.8130  -12.7600    0.5570 H         1    LIG37    0.0000
     36 H6         13.6660  -11.2530    2.4010 H         1    LIG37    0.0000
     37 H7         12.4140  -10.5140    1.3930 H         1    LIG37    0.0000
     38 H8         13.3550   -8.8710    2.8420 H         1    LIG37    0.0000
     39 H9         15.0070   -9.1950    2.2930 H         1    LIG37    0.0000
     40 H10        14.4630   -7.8960   -1.0990 H         1    LIG37    0.0000
     41 H11        15.6050   -8.6880   -0.0380 H         1    LIG37    0.0000
     42 H12        14.6690  -10.2830   -1.6760 H         1    LIG37    0.0000
     43 H13        13.0320   -9.9050   -1.1150 H         1    LIG37    0.0000
     44 H14        11.8250   -4.6030    2.8560 H         1    LIG37    0.0000
     45 H15        10.9290   -6.8370   -3.0620 H         1    LIG37    0.0000
     46 H16        10.0790   -4.9820   -1.6160 H         1    LIG37    0.0000
     47 H17        17.9810   -6.6320    3.6840 H         1    LIG37    0.0000
     48 H18        15.5480   -6.4150    2.1620 H         1    LIG37    0.0000
     49 H19        12.1280   -6.3850    4.6600 H         1    LIG37    0.0000
     50 H20        13.5440   -6.5570    6.6110 H         1    LIG37    0.0000
     51 H21        15.2500   -6.7420    8.1420 H         1    LIG37    0.0000
     52 H22        16.7360   -7.7110    8.1300 H         1    LIG37    0.0000
     53 H23        16.8300   -5.9410    8.2360 H         1    LIG37    0.0000
@<TRIPOS>BOND
     1    1    2 1
     2    1    5 1
     3    1   11 2
     4    2    3 1
     5    2   31 1
     6    3    4 1
     7    3   32 1
     8    3   33 1
     9    4    5 1
    10    4   34 1
    11    4   35 1
    12    5    6 1
    13    5   10 1
    14    6    7 1
    15    6   36 1
    16    6   37 1
    17    7    8 1
    18    7   38 1
    19    7   39 1
    20    8    9 1
    21    8   14 1
    22    9   10 1
    23    9   40 1
    24    9   41 1
    25   10   42 1
    26   10   43 1
    27   12   13 1
    28   12   17 2
    29   12   19 1
    30   13   14 2
    31   13   20 1
    32   14   15 1
    33   15   16 2
    34   15   26 1
    35   16   17 1
    36   16   44 1
    37   18   19 1
    38   18   20 2
    39   18   45 1
    40   19   46 1
    41   21   22 1
    42   21   29 1
    43   21   30 1
    44   22   23 2
    45   23   24 1
    46   23   47 1
    47   24   25 1
    48   24   29 2
    49   25   26 2
    50   25   48 1
    51   26   27 1
    52   27   28 2
    53   27   49 1
    54   28   29 1
    55   28   50 1
    56   30   51 1
    57   30   52 1
    58   30   53 1
@<TRIPOS>SUBSTRUCTURE
     1    LIG37    1   GROUP 1   LIG 1
@<TRIPOS>MOLECULE
51419724
   51    56    1     0     0
SMALL
USER_CHARGES


@<TRIPOS>ATOM
      1 C1         15.5320  -13.0240    1.3910 C.2       1    LIG38    0.0000
      2 N1         15.4650  -13.8250    0.2890 N.am      1    LIG38    0.0000
      3 C2         14.2250  -13.1160   -0.0700 C.3       1    LIG38    0.0000
      4 C3         14.3630  -12.2300    1.1740 C.3       1    LIG38    0.0000
      5 C4         13.2380  -12.3580    2.2160 C.3       1    LIG38    0.0000
      6 C5         13.5950  -11.5560    3.4780 C.3       1    LIG38    0.0000
      7 N2         13.8460  -10.1810    3.1600 N.pl3     1    LIG38    0.0000
      8 C6         14.8970   -9.9760    2.2040 C.3       1    LIG38    0.0000
      9 C7         14.5890  -10.7330    0.9010 C.3       1    LIG38    0.0000
     10 O1         16.3770  -12.9760    2.2690 O.2       1    LIG38    0.0000
     11 C8         11.0500   -8.1160    4.4610 C.2       1    LIG38    0.0000
     12 C9         11.7530   -9.1970    3.9360 C.2       1    LIG38    0.0000
     13 C10        13.1570   -9.1330    3.7480 C.2       1    LIG38    0.0000
     14 C11        13.8030   -7.9260    4.1670 C.2       1    LIG38    0.0000
     15 C12        13.0190   -6.8630    4.6830 C.2       1    LIG38    0.0000
     16 N3         11.6750   -6.9760    4.8190 N.2       1    LIG38    0.0000
     17 N4          9.7410   -8.4000    4.5100 N.pl3     1    LIG38    0.0000
     18 C13        10.7850  -10.1530    3.6340 C.2       1    LIG38    0.0000
     19 C14         9.5520   -9.6320    4.0130 C.2       1    LIG38    0.0000
     20 N5         19.3360   -7.5790    4.5650 N.pl3     1    LIG38    0.0000
     21 N6         19.5780   -8.6690    5.2350 N.2       1    LIG38    0.0000
     22 C15        18.4200   -9.3070    5.4870 C.2       1    LIG38    0.0000
     23 C16        17.3980   -8.5550    4.9330 C.2       1    LIG38    0.0000
     24 C17        16.0090   -8.7380    4.8920 C.2       1    LIG38    0.0000
     25 C18        15.2150   -7.7710    4.2250 C.2       1    LIG38    0.0000
     26 C19        15.8490   -6.6440    3.6360 C.2       1    LIG38    0.0000
     27 C20        17.2480   -6.4800    3.6920 C.2       1    LIG38    0.0000
     28 C21        18.0120   -7.4570    4.3500 C.2       1    LIG38    0.0000
     29 C22        20.3630   -6.6910    4.1510 C.3       1    LIG38    0.0000
     30 H1         16.2430  -13.7350   -0.3600 H         1    LIG38    0.0000
     31 H2         14.2660  -12.5930   -1.0270 H         1    LIG38    0.0000
     32 H3         13.3370  -13.7510   -0.0950 H         1    LIG38    0.0000
     33 H4         13.0970  -13.4060    2.4830 H         1    LIG38    0.0000
     34 H5         12.3130  -11.9770    1.7830 H         1    LIG38    0.0000
     35 H6         12.8160  -11.6830    4.2280 H         1    LIG38    0.0000
     36 H7         14.5100  -11.9760    3.9000 H         1    LIG38    0.0000
     37 H8         15.0130   -8.9270    1.9310 H         1    LIG38    0.0000
     38 H9         15.8410  -10.3420    2.6100 H         1    LIG38    0.0000
     39 H10        15.4220  -10.6050    0.2070 H         1    LIG38    0.0000
     40 H11        13.6900  -10.3110    0.4490 H         1    LIG38    0.0000
     41 H12        13.4610   -5.9960    4.9940 H         1    LIG38    0.0000
     42 H13         9.0470   -7.8060    4.8340 H         1    LIG38    0.0000
     43 H14        10.9330  -11.0650    3.2080 H         1    LIG38    0.0000
     44 H15         8.6520  -10.1020    3.9160 H         1    LIG38    0.0000
     45 H16        18.3160  -10.1860    5.9950 H         1    LIG38    0.0000
     46 H17        15.5860   -9.5570    5.3330 H         1    LIG38    0.0000
     47 H18        15.2920   -5.9380    3.1530 H         1    LIG38    0.0000
     48 H19        17.6920   -5.6690    3.2610 H         1    LIG38    0.0000
     49 H20        19.9620   -5.8390    3.6000 H         1    LIG38    0.0000
     50 H21        20.8950   -6.3230    5.0290 H         1    LIG38    0.0000
     51 H22        21.0640   -7.2270    3.5100 H         1    LIG38    0.0000
@<TRIPOS>BOND
     1    1    2 1
     2    1    4 1
     3    1   10 2
     4    2    3 1
     5    2   30 1
     6    3    4 1
     7    3   31 1
     8    3   32 1
     9    4    5 1
    10    4    9 1
    11    5    6 1
    12    5   33 1
    13    5   34 1
    14    6    7 1
    15    6   35 1
    16    6   36 1
    17    7    8 1
    18    7   13 1
    19    8    9 1
    20    8   37 1
    21    8   38 1
    22    9   39 1
    23    9   40 1
    24   11   12 1
    25   11   16 2
    26   11   17 1
    27   12   13 2
    28   12   18 1
    29   13   14 1
    30   14   15 2
    31   14   25 1
    32   15   16 1
    33   15   41 1
    34   17   19 1
    35   17   42 1
    36   18   19 2
    37   18   43 1
    38   19   44 1
    39   20   21 1
    40   20   28 1
    41   20   29 1
    42   21   22 2
    43   22   23 1
    44   22   45 1
    45   23   24 1
    46   23   28 2
    47   24   25 2
    48   24   46 1
    49   25   26 1
    50   26   27 2
    51   26   47 1
    52   27   28 1
    53   27   48 1
    54   29   49 1
    55   29   50 1
    56   29   51 1
@<TRIPOS>SUBSTRUCTURE
     1    LIG38    1   GROUP 1   LIG 1
@<TRIPOS>MOLECULE
51419725
   52    57    1     0     0
SMALL
USER_CHARGES


@<TRIPOS>ATOM
      1 O1         14.9710  -10.7080   -0.1430 O.3       1    LIG39    0.0000
      2 C1         15.2770  -11.4860   -1.2000 C.2       1    LIG39    0.0000
      3 N1         15.2840  -12.7790   -0.8910 N.am      1    LIG39    0.0000
      4 C2         14.9700  -12.9960    0.4620 C.3       1    LIG39    0.0000
      5 C3         14.7520  -11.5580    0.9870 C.3       1    LIG39    0.0000
      6 C4         15.7580  -11.2120    2.0980 C.3       1    LIG39    0.0000
      7 C5         15.4670   -9.8160    2.6720 C.3       1    LIG39    0.0000
      8 N2         14.0970   -9.6630    3.0750 N.2       1    LIG39    0.0000
      9 C6         13.1330   -9.9340    2.0510 C.3       1    LIG39    0.0000
     10 C7         13.3200  -11.3620    1.5140 C.3       1    LIG39    0.0000
     11 O2         15.5260  -11.0470   -2.3420 O.2       1    LIG39    0.0000
     12 C8         12.4960   -7.4680    5.5920 C.2       1    LIG39    0.0000
     13 C9         12.7940   -8.0800    4.3770 C.2       1    LIG39    0.0000
     14 C10        13.7490   -9.1220    4.2990 C.2       1    LIG39    0.0000
     15 C11        14.3530   -9.5270    5.5290 C.2       1    LIG39    0.0000
     16 C12        14.0130   -8.8510    6.7290 C.2       1    LIG39    0.0000
     17 N3         13.1010   -7.8470    6.7370 N.2       1    LIG39    0.0000
     18 N4         11.5950   -6.4950    5.4020 N.pl3     1    LIG39    0.0000
     19 C13        12.0490   -7.3940    3.4210 C.2       1    LIG39    0.0000
     20 C14        11.3070   -6.4270    4.0920 C.2       1    LIG39    0.0000
     21 N5         17.2860  -14.2170    5.9300 N.pl3     1    LIG39    0.0000
     22 N6         16.3980  -15.0670    5.5000 N.2       1    LIG39    0.0000
     23 C15        15.2620  -14.4150    5.1920 C.2       1    LIG39    0.0000
     24 C16        15.4690  -13.0710    5.4500 C.2       1    LIG39    0.0000
     25 C17        14.6440  -11.9450    5.3070 C.2       1    LIG39    0.0000
     26 C18        15.1700  -10.6760    5.6490 C.2       1    LIG39    0.0000
     27 C19        16.4950  -10.5790    6.1470 C.2       1    LIG39    0.0000
     28 C20        17.3060  -11.7250    6.2800 C.2       1    LIG39    0.0000
     29 C21        16.7690  -12.9730    5.9210 C.2       1    LIG39    0.0000
     30 C22        18.5900  -14.6070    6.3320 C.3       1    LIG39    0.0000
     31 H1         15.4830  -13.4830   -1.5260 H         1    LIG39    0.0000
     32 H2         15.8010  -13.4900    0.9680 H         1    LIG39    0.0000
     33 H3         14.0650  -13.5990    0.5480 H         1    LIG39    0.0000
     34 H4         15.6920  -11.9580    2.8850 H         1    LIG39    0.0000
     35 H5         16.7690  -11.2270    1.6900 H         1    LIG39    0.0000
     36 H6         16.1710   -9.6040    3.4750 H         1    LIG39    0.0000
     37 H7         15.6590   -9.0900    1.8800 H         1    LIG39    0.0000
     38 H8         12.1100   -9.8660    2.4240 H         1    LIG39    0.0000
     39 H9         13.2610   -9.2250    1.2310 H         1    LIG39    0.0000
     40 H10        13.1290  -12.0730    2.3190 H         1    LIG39    0.0000
     41 H11        12.6080  -11.5390    0.7070 H         1    LIG39    0.0000
     42 H12        14.4290   -9.1340    7.6180 H         1    LIG39    0.0000
     43 H13        11.2290   -5.9220    6.0930 H         1    LIG39    0.0000
     44 H14        12.0480   -7.5520    2.4140 H         1    LIG39    0.0000
     45 H15        10.6630   -5.7650    3.6580 H         1    LIG39    0.0000
     46 H16        14.4060  -14.8360    4.8290 H         1    LIG39    0.0000
     47 H17        13.6900  -12.0470    4.9550 H         1    LIG39    0.0000
     48 H18        16.8800   -9.6700    6.4080 H         1    LIG39    0.0000
     49 H19        18.2610  -11.6460    6.6300 H         1    LIG39    0.0000
     50 H20        19.1860  -13.7510    6.6510 H         1    LIG39    0.0000
     51 H21        18.5140  -15.3120    7.1600 H         1    LIG39    0.0000
     52 H22        19.0920  -15.0940    5.4960 H         1    LIG39    0.0000
@<TRIPOS>BOND
     1    1    2 1
     2    1    5 1
     3    2    3 1
     4    2   11 2
     5    3    4 1
     6    3   31 1
     7    4    5 1
     8    4   32 1
     9    4   33 1
    10    5    6 1
    11    5   10 1
    12    6    7 1
    13    6   34 1
    14    6   35 1
    15    7    8 1
    16    7   36 1
    17    7   37 1
    18    8    9 1
    19    8   14 1
    20    9   10 1
    21    9   38 1
    22    9   39 1
    23   10   40 1
    24   10   41 1
    25   12   13 1
    26   12   17 2
    27   12   18 1
    28   13   14 2
    29   13   19 1
    30   14   15 1
    31   15   16 2
    32   15   26 1
    33   16   17 1
    34   16   42 1
    35   18   20 1
    36   18   43 1
    37   19   20 2
    38   19   44 1
    39   20   45 1
    40   21   22 1
    41   21   29 1
    42   21   30 1
    43   22   23 2
    44   23   24 1
    45   23   46 1
    46   24   25 1
    47   24   29 2
    48   25   26 2
    49   25   47 1
    50   26   27 1
    51   27   28 2
    52   27   48 1
    53   28   29 1
    54   28   49 1
    55   30   50 1
    56   30   51 1
    57   30   52 1
@<TRIPOS>SUBSTRUCTURE
     1    LIG39    1   GROUP 1   LIG 1
@<TRIPOS>MOLECULE
692699
   39    42    1     0     0
SMALL
USER_CHARGES


@<TRIPOS>ATOM
      1 C1         -0.7140    1.6180    2.7710 C.2       1    LIG40    0.0000
      2 C2         -0.0130    1.0490    1.6960 C.2       1    LIG40    0.0000
      3 C3          1.2120    1.6210    1.2660 C.2       1    LIG40    0.0000
      4 C4          1.6770    2.7690    1.9460 C.2       1    LIG40    0.0000
      5 C5          0.9360    3.3050    3.0110 C.2       1    LIG40    0.0000
      6 N1         -0.2240    2.7190    3.3880 N.2       1    LIG40    0.0000
      7 O1         -0.5260   -0.0810    1.1180 O.3       1    LIG40    0.0000
      8 C6         -0.0430   -0.6190   -0.1300 C.3       1    LIG40    0.0000
      9 C7          1.2890   -0.0760   -0.4830 C.2       1    LIG40    0.0000
     10 C8          1.8860    0.9970    0.1720 C.2       1    LIG40    0.0000
     11 C9          2.1270   -0.4620   -1.5110 C.2       1    LIG40    0.0000
     12 C10         3.2440    0.3660   -1.4750 C.2       1    LIG40    0.0000
     13 N2          3.0800    1.2420   -0.4420 N.pl3     1    LIG40    0.0000
     14 C11         0.0100   -2.1540    0.0310 C.3       1    LIG40    0.0000
     15 C12        -1.3950   -2.7100    0.3060 C.3       1    LIG40    0.0000
     16 O2         -2.2860   -2.2960   -0.7290 O.3       1    LIG40    0.0000
     17 C13        -2.4300   -0.8890   -0.9110 C.3       1    LIG40    0.0000
     18 C14        -1.0640   -0.2660   -1.2330 C.3       1    LIG40    0.0000
     19 C15         4.0060    2.2570   -0.0450 C.3       1    LIG40    0.0000
     20 C16         4.3060    0.2420   -2.4030 C.2       1    LIG40    0.0000
     21 N3          4.2970   -0.7010   -3.3590 N.am      1    LIG40    0.0000
     22 O3          5.3020    0.9940   -2.3990 O.2       1    LIG40    0.0000
     23 H1         -1.5900    1.2030    3.0890 H         1    LIG40    0.0000
     24 H2          2.5400    3.2350    1.6870 H         1    LIG40    0.0000
     25 H3          1.2710    4.1350    3.5010 H         1    LIG40    0.0000
     26 H4          1.9450   -1.2140   -2.1760 H         1    LIG40    0.0000
     27 H5          0.3890   -2.6150   -0.8820 H         1    LIG40    0.0000
     28 H6          0.6670   -2.4170    0.8620 H         1    LIG40    0.0000
     29 H7         -1.3540   -3.7990    0.3300 H         1    LIG40    0.0000
     30 H8         -1.7550   -2.3450    1.2690 H         1    LIG40    0.0000
     31 H9         -3.1170   -0.7020   -1.7370 H         1    LIG40    0.0000
     32 H10        -2.8360   -0.4400   -0.0030 H         1    LIG40    0.0000
     33 H11        -1.1740    0.8170   -1.3040 H         1    LIG40    0.0000
     34 H12        -0.7250   -0.6540   -2.1950 H         1    LIG40    0.0000
     35 H13         4.9330    2.2410   -0.6080 H         1    LIG40    0.0000
     36 H14         3.5530    3.2380   -0.1890 H         1    LIG40    0.0000
     37 H15         4.2690    2.1200    1.0050 H         1    LIG40    0.0000
     38 H16         5.0390   -0.7580   -3.9800 H         1    LIG40    0.0000
     39 H17         3.5570   -1.3220   -3.4290 H         1    LIG40    0.0000
@<TRIPOS>BOND
     1    1    2 2
     2    1    6 1
     3    1   23 1
     4    2    3 1
     5    2    7 1
     6    3    4 2
     7    3   10 1
     8    4    5 1
     9    4   24 1
    10    5    6 2
    11    5   25 1
    12    7    8 1
    13    8    9 1
    14    8   14 1
    15    8   18 1
    16    9   10 2
    17    9   11 1
    18   10   13 1
    19   11   12 2
    20   11   26 1
    21   12   13 1
    22   12   20 1
    23   13   19 1
    24   14   15 1
    25   14   27 1
    26   14   28 1
    27   15   16 1
    28   15   29 1
    29   15   30 1
    30   16   17 1
    31   17   18 1
    32   17   31 1
    33   17   32 1
    34   18   33 1
    35   18   34 1
    36   19   35 1
    37   19   36 1
    38   19   37 1
    39   20   21 1
    40   20   22 2
    41   21   38 1
    42   21   39 1
@<TRIPOS>SUBSTRUCTURE
     1    LIG40    1   GROUP 1   LIG 1
@<TRIPOS>MOLECULE
50778693
   36    39    1     0     0
SMALL
USER_CHARGES


@<TRIPOS>ATOM
      1 O1         10.4780   -4.7200   -2.6680 O.3       1    LIG41    0.0000
      2 C1          7.6960   -7.2660    0.9710 C.3       1    LIG41    0.0000
      3 C2          8.9170   -8.1230    0.5250 C.3       1    LIG41    0.0000
      4 C3          9.5540   -6.2710   -1.0570 C.2       1    LIG41    0.0000
      5 C4          9.7950   -7.5290   -0.5130 C.2       1    LIG41    0.0000
      6 C5         10.9370   -8.1220   -1.0600 C.2       1    LIG41    0.0000
      7 S1         11.7150   -7.1270   -2.2480 S.3       1    LIG41    0.0000
      8 C6         10.5030   -5.9110   -2.0090 C.2       1    LIG41    0.0000
      9 C7         11.4310   -4.4550   -3.6010 C.2       1    LIG41    0.0000
     10 C8          7.5700   -5.9530    0.3090 C.2       1    LIG41    0.0000
     11 C9          8.4610   -5.4970   -0.6510 C.2       1    LIG41    0.0000
     12 S2          8.0480   -3.9240   -1.2450 S.3       1    LIG41    0.0000
     13 N1          6.7130   -3.9110   -0.2130 N.2       1    LIG41    0.0000
     14 C10         6.5740   -5.0150    0.5380 C.2       1    LIG41    0.0000
     15 C11        11.4570   -9.3830   -0.7310 C.2       1    LIG41    0.0000
     16 O2         10.9220  -10.1270    0.1200 O.2       1    LIG41    0.0000
     17 N2         12.5640   -9.8280   -1.3380 N.am      1    LIG41    0.0000
     18 C12        12.5400   -3.6410   -3.2850 C.2       1    LIG41    0.0000
     19 C13        13.5020   -3.3640   -4.2750 C.2       1    LIG41    0.0000
     20 C14        13.3370   -3.8970   -5.5620 C.2       1    LIG41    0.0000
     21 N3         12.2560   -4.6690   -5.8370 N.2       1    LIG41    0.0000
     22 C15        11.3100   -4.9580   -4.9090 C.2       1    LIG41    0.0000
     23 C16        12.6830   -3.0930   -1.9270 C.3       1    LIG41    0.0000
     24 H1          6.7860   -7.8360    0.7760 H         1    LIG41    0.0000
     25 H2          7.7680   -7.1010    2.0470 H         1    LIG41    0.0000
     26 H3          8.5380   -9.0750    0.1470 H         1    LIG41    0.0000
     27 H4          9.5240   -8.3290    1.4080 H         1    LIG41    0.0000
     28 H5          5.8150   -5.1490    1.2060 H         1    LIG41    0.0000
     29 H6         12.9200  -10.7000   -1.1080 H         1    LIG41    0.0000
     30 H7         13.0090   -9.2810   -2.0040 H         1    LIG41    0.0000
     31 H8         14.3130   -2.7800   -4.0640 H         1    LIG41    0.0000
     32 H9         14.0250   -3.7050   -6.2910 H         1    LIG41    0.0000
     33 H10        10.5100   -5.5390   -5.1620 H         1    LIG41    0.0000
     34 H11        13.5820   -2.4800   -1.8390 H         1    LIG41    0.0000
     35 H12        11.8150   -2.4770   -1.6880 H         1    LIG41    0.0000
     36 H13        12.7470   -3.9120   -1.2080 H         1    LIG41    0.0000
@<TRIPOS>BOND
     1    1    8 1
     2    1    9 1
     3    2    3 1
     4    2   10 1
     5    2   24 1
     6    2   25 1
     7    3    5 1
     8    3   26 1
     9    3   27 1
    10    4    5 1
    11    4    8 2
    12    4   11 1
    13    5    6 2
    14    6    7 1
    15    6   15 1
    16    7    8 1
    17    9   18 2
    18    9   22 1
    19   10   11 2
    20   10   14 1
    21   11   12 1
    22   12   13 1
    23   13   14 2
    24   14   28 1
    25   15   16 2
    26   15   17 1
    27   17   29 1
    28   17   30 1
    29   18   19 1
    30   18   23 1
    31   19   20 2
    32   19   31 1
    33   20   21 1
    34   20   32 1
    35   21   22 2
    36   22   33 1
    37   23   34 1
    38   23   35 1
    39   23   36 1
@<TRIPOS>SUBSTRUCTURE
     1    LIG41    1   GROUP 1   LIG 1
@<TRIPOS>MOLECULE
51419707
   54    59    1     0     0
SMALL
USER_CHARGES


@<TRIPOS>ATOM
      1 C1         15.5720  -12.4970    1.1670 C.2       1    LIG42    0.0000
      2 N1         15.6110  -13.5060    0.3000 N.am      1    LIG42    0.0000
      3 C2         14.7070  -13.3690   -0.7690 C.3       1    LIG42    0.0000
      4 C3         13.9140  -12.0940   -0.4370 C.3       1    LIG42    0.0000
      5 C4         14.5930  -11.4630    0.8030 C.3       1    LIG42    0.0000
      6 C5         13.5500  -11.2050    1.9130 C.3       1    LIG42    0.0000
      7 C6         14.1360  -10.4170    3.0970 C.3       1    LIG42    0.0000
      8 N2         14.7440   -9.1980    2.6410 N.pl3     1    LIG42    0.0000
      9 C7         15.7850   -9.3820    1.6720 C.3       1    LIG42    0.0000
     10 C8         15.2630  -10.1230    0.4270 C.3       1    LIG42    0.0000
     11 O1         16.3290  -12.4480    2.1610 O.2       1    LIG42    0.0000
     12 C9         13.8210   -5.6020    2.7510 C.2       1    LIG42    0.0000
     13 C10        14.2540   -6.8360    2.2680 C.2       1    LIG42    0.0000
     14 C11        14.3820   -7.9540    3.1310 C.2       1    LIG42    0.0000
     15 C12        14.0890   -7.7270    4.5150 C.2       1    LIG42    0.0000
     16 C13        13.6420   -6.4460    4.9300 C.2       1    LIG42    0.0000
     17 N3         13.5180   -5.4220    4.0510 N.2       1    LIG42    0.0000
     18 N4         13.7480   -4.7170    1.7480 N.pl3     1    LIG42    0.0000
     19 C14        14.4120   -6.6560    0.8960 C.2       1    LIG42    0.0000
     20 C15        14.1020   -5.3310    0.6090 C.2       1    LIG42    0.0000
     21 N5         15.4040  -11.4500    8.4270 N.pl3     1    LIG42    0.0000
     22 N6         16.6390  -11.6920    8.0940 N.2       1    LIG42    0.0000
     23 C16        16.9670  -10.9540    7.0170 C.2       1    LIG42    0.0000
     24 C17        15.8550  -10.2080    6.6670 C.2       1    LIG42    0.0000
     25 C18        15.6290   -9.2780    5.6410 C.2       1    LIG42    0.0000
     26 C19        14.3490   -8.6770    5.5390 C.2       1    LIG42    0.0000
     27 C20        13.3470   -9.0220    6.4850 C.2       1    LIG42    0.0000
     28 C21        13.5980   -9.9570    7.5090 C.2       1    LIG42    0.0000
     29 C22        14.8710  -10.5450    7.5830 C.2       1    LIG42    0.0000
     30 C23        14.7700  -12.0800    9.5300 C.3       1    LIG42    0.0000
     31 H1         16.2230  -14.2520    0.3890 H         1    LIG42    0.0000
     32 H2         15.2500  -13.2540   -1.7080 H         1    LIG42    0.0000
     33 H3         14.0430  -14.2330   -0.8210 H         1    LIG42    0.0000
     34 H4         13.9260  -11.4140   -1.2900 H         1    LIG42    0.0000
     35 H5         12.8810  -12.3670   -0.2130 H         1    LIG42    0.0000
     36 H6         13.1480  -12.1520    2.2760 H         1    LIG42    0.0000
     37 H7         12.7300  -10.6210    1.4920 H         1    LIG42    0.0000
     38 H8         13.3070  -10.2340    3.7800 H         1    LIG42    0.0000
     39 H9         14.8790  -11.0310    3.6060 H         1    LIG42    0.0000
     40 H10        16.2510   -8.4460    1.3700 H         1    LIG42    0.0000
     41 H11        16.5690   -9.9850    2.1310 H         1    LIG42    0.0000
     42 H12        14.5230   -9.4970   -0.0690 H         1    LIG42    0.0000
     43 H13        16.0900  -10.2960   -0.2640 H         1    LIG42    0.0000
     44 H14        13.4350   -6.2620    5.9130 H         1    LIG42    0.0000
     45 H15        13.4700   -3.7910    1.8310 H         1    LIG42    0.0000
     46 H16        14.6950   -7.3550    0.2130 H         1    LIG42    0.0000
     47 H17        14.1280   -4.9000   -0.3160 H         1    LIG42    0.0000
     48 H18        17.8720  -10.9470    6.5460 H         1    LIG42    0.0000
     49 H19        16.3750   -9.0490    4.9830 H         1    LIG42    0.0000
     50 H20        12.4200   -8.5960    6.4270 H         1    LIG42    0.0000
     51 H21        12.8680  -10.2000    8.1790 H         1    LIG42    0.0000
     52 H22        13.7380  -11.7490    9.6460 H         1    LIG42    0.0000
     53 H23        14.7790  -13.1600    9.3800 H         1    LIG42    0.0000
     54 H24        15.3210  -11.8440   10.4410 H         1    LIG42    0.0000
@<TRIPOS>BOND
     1    1    2 1
     2    1    5 1
     3    1   11 2
     4    2    3 1
     5    2   31 1
     6    3    4 1
     7    3   32 1
     8    3   33 1
     9    4    5 1
    10    4   34 1
    11    4   35 1
    12    5    6 1
    13    5   10 1
    14    6    7 1
    15    6   36 1
    16    6   37 1
    17    7    8 1
    18    7   38 1
    19    7   39 1
    20    8    9 1
    21    8   14 1
    22    9   10 1
    23    9   40 1
    24    9   41 1
    25   10   42 1
    26   10   43 1
    27   12   13 1
    28   12   17 2
    29   12   18 1
    30   13   14 2
    31   13   19 1
    32   14   15 1
    33   15   16 2
    34   15   26 1
    35   16   17 1
    36   16   44 1
    37   18   20 1
    38   18   45 1
    39   19   20 2
    40   19   46 1
    41   20   47 1
    42   21   22 1
    43   21   29 1
    44   21   30 1
    45   22   23 2
    46   23   24 1
    47   23   48 1
    48   24   25 1
    49   24   29 2
    50   25   26 2
    51   25   49 1
    52   26   27 1
    53   27   28 2
    54   27   50 1
    55   28   29 1
    56   28   51 1
    57   30   52 1
    58   30   53 1
    59   30   54 1
@<TRIPOS>SUBSTRUCTURE
     1    LIG42    1   GROUP 1   LIG 1
@<TRIPOS>MOLECULE
692692
   41    44    1     0     0
SMALL
USER_CHARGES


@<TRIPOS>ATOM
      1 C1         -3.1530    1.2070   -0.6780 C.2       1    LIG43    0.0000
      2 C2         -1.9440    1.4440   -1.3720 C.2       1    LIG43    0.0000
      3 O1         -3.6020    2.0650    0.2990 O.3       1    LIG43    0.0000
      4 C3         -2.8410    3.2050    0.7740 C.3       1    LIG43    0.0000
      5 C4         -1.6090    3.4380   -0.0060 C.2       1    LIG43    0.0000
      6 C5         -1.2020    2.5820   -1.0180 C.2       1    LIG43    0.0000
      7 C6         -0.6600    4.4470    0.0870 C.2       1    LIG43    0.0000
      8 C7          0.3100    4.1750   -0.8770 C.2       1    LIG43    0.0000
      9 N1         -0.0470    3.0470   -1.5210 N.pl3     1    LIG43    0.0000
     10 C8          1.4640    4.9200   -1.1520 C.2       1    LIG43    0.0000
     11 O2          2.2450    4.5490   -2.0540 O.2       1    LIG43    0.0000
     12 N2          1.7650    6.0350   -0.4700 N.am      1    LIG43    0.0000
     13 C9         -1.5230    0.5540   -2.3780 C.2       1    LIG43    0.0000
     14 C10        -2.3200   -0.5640   -2.6700 C.2       1    LIG43    0.0000
     15 N3         -3.4750   -0.7660   -1.9870 N.2       1    LIG43    0.0000
     16 C11        -3.9100    0.0740   -1.0140 C.2       1    LIG43    0.0000
     17 C12        -2.5420    3.0200    2.2810 C.3       1    LIG43    0.0000
     18 C13        -3.8640    2.9910    3.0710 C.3       1    LIG43    0.0000
     19 C14        -3.5930    2.8380    4.5760 C.3       1    LIG43    0.0000
     20 C15        -2.7940    1.5550    4.8470 C.3       1    LIG43    0.0000
     21 C16        -1.4750    1.5720    4.0610 C.3       1    LIG43    0.0000
     22 C17        -1.7480    1.7250    2.5580 C.3       1    LIG43    0.0000
     23 H1         -3.4710    4.0880    0.6610 H         1    LIG43    0.0000
     24 H2         -0.6720    5.2300    0.7410 H         1    LIG43    0.0000
     25 H3          0.4570    2.6370   -2.2410 H         1    LIG43    0.0000
     26 H4          2.5720    6.5260   -0.6870 H         1    LIG43    0.0000
     27 H5          1.1790    6.3490    0.2350 H         1    LIG43    0.0000
     28 H6         -0.6530    0.7090   -2.8910 H         1    LIG43    0.0000
     29 H7         -2.0340   -1.2230   -3.3940 H         1    LIG43    0.0000
     30 H8         -4.7870   -0.1190   -0.5300 H         1    LIG43    0.0000
     31 H9         -1.9570    3.8720    2.6340 H         1    LIG43    0.0000
     32 H10        -4.4770    2.1560    2.7300 H         1    LIG43    0.0000
     33 H11        -4.4070    3.9210    2.9020 H         1    LIG43    0.0000
     34 H12        -3.0290    3.7000    4.9330 H         1    LIG43    0.0000
     35 H13        -4.5430    2.7900    5.1090 H         1    LIG43    0.0000
     36 H14        -2.5780    1.4840    5.9130 H         1    LIG43    0.0000
     37 H15        -3.3840    0.6890    4.5460 H         1    LIG43    0.0000
     38 H16        -0.8580    2.4040    4.4040 H         1    LIG43    0.0000
     39 H17        -0.9390    0.6390    4.2370 H         1    LIG43    0.0000
     40 H18        -2.3180    0.8630    2.2080 H         1    LIG43    0.0000
     41 H19        -0.7940    1.7560    2.0300 H         1    LIG43    0.0000
@<TRIPOS>BOND
     1    1    2 1
     2    1    3 1
     3    1   16 2
     4    2    6 1
     5    2   13 2
     6    3    4 1
     7    4    5 1
     8    4   17 1
     9    4   23 1
    10    5    6 2
    11    5    7 1
    12    6    9 1
    13    7    8 2
    14    7   24 1
    15    8    9 1
    16    8   10 1
    17    9   25 1
    18   10   11 2
    19   10   12 1
    20   12   26 1
    21   12   27 1
    22   13   14 1
    23   13   28 1
    24   14   15 2
    25   14   29 1
    26   15   16 1
    27   16   30 1
    28   17   18 1
    29   17   22 1
    30   17   31 1
    31   18   19 1
    32   18   32 1
    33   18   33 1
    34   19   20 1
    35   19   34 1
    36   19   35 1
    37   20   21 1
    38   20   36 1
    39   20   37 1
    40   21   22 1
    41   21   38 1
    42   21   39 1
    43   22   40 1
    44   22   41 1
@<TRIPOS>SUBSTRUCTURE
     1    LIG43    1   GROUP 1   LIG 1
@<TRIPOS>MOLECULE
50759949
   59    63    1     0     0
SMALL
USER_CHARGES


@<TRIPOS>ATOM
      1 C1         12.2930  -20.4080    3.9990 C.2       1    LIG44    0.0000
      2 N1         11.4450  -20.0520    2.9940 N.am      1    LIG44    0.0000
      3 C2         11.7820  -19.5070    1.7970 C.2       1    LIG44    0.0000
      4 C3         12.7680  -18.5090    1.6470 C.2       1    LIG44    0.0000
      5 C4         13.0450  -17.9680    0.3790 C.2       1    LIG44    0.0000
      6 C5         12.3380  -18.4120   -0.7560 C.2       1    LIG44    0.0000
      7 C6         12.6220  -17.8560   -2.0920 C.3       1    LIG44    0.0000
      8 N2         11.4240  -17.2310   -2.6980 N.3       1    LIG44    0.0000
      9 C7         11.6710  -16.9760   -4.1320 C.3       1    LIG44    0.0000
     10 C8         10.4220  -16.3590   -4.7790 C.3       1    LIG44    0.0000
     11 O1         10.0620  -15.1740   -4.0750 O.3       1    LIG44    0.0000
     12 C9          9.8330  -15.3400   -2.6780 C.3       1    LIG44    0.0000
     13 C10        11.0780  -15.9590   -2.0240 C.3       1    LIG44    0.0000
     14 C11        11.3460  -19.4010   -0.6030 C.2       1    LIG44    0.0000
     15 C12        11.0660  -19.9370    0.6650 C.2       1    LIG44    0.0000
     16 O2         13.5300  -20.2420    3.9020 O.2       1    LIG44    0.0000
     17 C13        11.8140  -21.0180    5.1720 C.2       1    LIG44    0.0000
     18 C14        10.4540  -21.2600    5.4100 C.2       1    LIG44    0.0000
     19 C15         9.8740  -21.9000    6.5460 C.2       1    LIG44    0.0000
     20 C16         8.4730  -22.1960    6.6450 C.2       1    LIG44    0.0000
     21 C17         7.5260  -22.1350    5.5640 C.2       1    LIG44    0.0000
     22 C18         7.7340  -22.1730    4.1870 C.2       1    LIG44    0.0000
     23 N3          6.5520  -22.0980    3.5600 N.pl3     1    LIG44    0.0000
     24 N4          5.5890  -22.0440    4.4190 N.2       1    LIG44    0.0000
     25 C19         6.1320  -22.0780    5.6470 C.2       1    LIG44    0.0000
     26 C20         7.9720  -22.6310    7.8980 C.2       1    LIG44    0.0000
     27 C21         8.8330  -22.8550    8.9770 C.2       1    LIG44    0.0000
     28 N5         10.1550  -22.6400    8.8270 N.2       1    LIG44    0.0000
     29 C22        10.6870  -22.1840    7.6720 C.2       1    LIG44    0.0000
     30 C23         6.3780  -22.0980    2.1550 C.3       1    LIG44    0.0000
     31 C24         5.6830  -20.9080    1.4870 C.3       1    LIG44    0.0000
     32 C25         7.1700  -21.1600    1.2370 C.3       1    LIG44    0.0000
     33 H1         10.5080  -20.2630    3.1190 H         1    LIG44    0.0000
     34 H2         13.2830  -18.1680    2.4590 H         1    LIG44    0.0000
     35 H3         13.7620  -17.2480    0.2860 H         1    LIG44    0.0000
     36 H4         13.4300  -17.1210   -2.0450 H         1    LIG44    0.0000
     37 H5         12.9560  -18.6790   -2.7270 H         1    LIG44    0.0000
     38 H6         12.5130  -16.2920   -4.2540 H         1    LIG44    0.0000
     39 H7         11.8980  -17.9140   -4.6400 H         1    LIG44    0.0000
     40 H8         10.6340  -16.1130   -5.8200 H         1    LIG44    0.0000
     41 H9          9.6000  -17.0740   -4.7400 H         1    LIG44    0.0000
     42 H10         9.6280  -14.3690   -2.2270 H         1    LIG44    0.0000
     43 H11         8.9760  -15.9970   -2.5220 H         1    LIG44    0.0000
     44 H12        11.9080  -15.2550   -2.0990 H         1    LIG44    0.0000
     45 H13        10.8590  -16.1380   -0.9710 H         1    LIG44    0.0000
     46 H14        10.8230  -19.7270   -1.4160 H         1    LIG44    0.0000
     47 H15        10.3400  -20.6490    0.7580 H         1    LIG44    0.0000
     48 H16        12.5090  -21.3050    5.8610 H         1    LIG44    0.0000
     49 H17         9.8210  -20.9030    4.7020 H         1    LIG44    0.0000
     50 H18         8.6270  -22.2860    3.7090 H         1    LIG44    0.0000
     51 H19         5.5890  -22.0420    6.5100 H         1    LIG44    0.0000
     52 H20         6.9820  -22.8390    8.0330 H         1    LIG44    0.0000
     53 H21         8.4660  -23.1940    9.8670 H         1    LIG44    0.0000
     54 H22        11.6920  -22.0160    7.6580 H         1    LIG44    0.0000
     55 H23         6.1040  -23.1020    1.8300 H         1    LIG44    0.0000
     56 H24         4.9610  -21.0770    0.6880 H         1    LIG44    0.0000
     57 H25         5.3690  -20.0520    2.0850 H         1    LIG44    0.0000
     58 H26         7.5090  -21.5130    0.2630 H         1    LIG44    0.0000
     59 H27         7.9110  -20.4770    1.6520 H         1    LIG44    0.0000
@<TRIPOS>BOND
     1    1    2 1
     2    1   16 2
     3    1   17 1
     4    2    3 1
     5    2   33 1
     6    3    4 2
     7    3   15 1
     8    4    5 1
     9    4   34 1
    10    5    6 2
    11    5   35 1
    12    6    7 1
    13    6   14 1
    14    7    8 1
    15    7   36 1
    16    7   37 1
    17    8    9 1
    18    8   13 1
    19    9   10 1
    20    9   38 1
    21    9   39 1
    22   10   11 1
    23   10   40 1
    24   10   41 1
    25   11   12 1
    26   12   13 1
    27   12   42 1
    28   12   43 1
    29   13   44 1
    30   13   45 1
    31   14   15 2
    32   14   46 1
    33   15   47 1
    34   17   18 2
    35   17   48 1
    36   18   19 1
    37   18   49 1
    38   19   20 2
    39   19   29 1
    40   20   21 1
    41   20   26 1
    42   21   22 2
    43   21   25 1
    44   22   23 1
    45   22   50 1
    46   23   24 1
    47   23   30 1
    48   24   25 2
    49   25   51 1
    50   26   27 2
    51   26   52 1
    52   27   28 1
    53   27   53 1
    54   28   29 2
    55   29   54 1
    56   30   31 1
    57   30   32 1
    58   30   55 1
    59   31   32 1
    60   31   56 1
    61   31   57 1
    62   32   58 1
    63   32   59 1
@<TRIPOS>SUBSTRUCTURE
     1    LIG44    1   GROUP 1   LIG 1
@<TRIPOS>MOLECULE
692590
   38    41    1     0     0
SMALL
USER_CHARGES


@<TRIPOS>ATOM
      1 C1         -1.8140    3.0130    0.6160 C.2       1    LIG45    0.0000
      2 C2         -1.1900    1.7550    0.6040 C.2       1    LIG45    0.0000
      3 C3          0.2210    1.6990    0.6430 C.2       1    LIG45    0.0000
      4 C4          0.9730    2.8890    0.6920 C.2       1    LIG45    0.0000
      5 C5          0.2950    4.1180    0.7020 C.2       1    LIG45    0.0000
      6 N1         -1.0610    4.1410    0.6650 N.2       1    LIG45    0.0000
      7 O1         -1.9540    0.6140    0.5550 O.3       1    LIG45    0.0000
      8 C6         -1.4070   -0.7310    0.5450 C.3       1    LIG45    0.0000
      9 C7          0.0750   -0.7360    0.5850 C.2       1    LIG45    0.0000
     10 C8          0.8220    0.4320    0.6310 C.2       1    LIG45    0.0000
     11 C9          0.9750   -1.7950    0.5880 C.2       1    LIG45    0.0000
     12 C10         2.2530   -1.2390    0.6360 C.2       1    LIG45    0.0000
     13 N2          2.1230    0.1000    0.6610 N.pl3     1    LIG45    0.0000
     14 C11         3.4750   -1.9240    0.6570 C.2       1    LIG45    0.0000
     15 N3          3.5370   -3.2640    0.6320 N.am      1    LIG45    0.0000
     16 O2          4.5470   -1.2830    0.7000 O.2       1    LIG45    0.0000
     17 C12        -1.8990   -1.4280   -0.7430 C.3       1    LIG45    0.0000
     18 C13        -3.4340   -1.5010   -0.7830 C.3       1    LIG45    0.0000
     19 C14        -3.9670   -2.2430    0.4510 C.3       1    LIG45    0.0000
     20 C15        -3.5000   -1.5460    1.7370 C.3       1    LIG45    0.0000
     21 C16        -1.9650   -1.4730    1.7800 C.3       1    LIG45    0.0000
     22 H1         -2.8320    3.0800    0.5890 H         1    LIG45    0.0000
     23 H2          1.9930    2.8680    0.7200 H         1    LIG45    0.0000
     24 H3          0.8190    4.9920    0.7380 H         1    LIG45    0.0000
     25 H4          0.7400   -2.7870    0.5620 H         1    LIG45    0.0000
     26 H5          2.8610    0.7280    0.6960 H         1    LIG45    0.0000
     27 H6          4.4010   -3.7030    0.6480 H         1    LIG45    0.0000
     28 H7          2.7240   -3.7900    0.5980 H         1    LIG45    0.0000
     29 H8         -1.5530   -0.8690   -1.6150 H         1    LIG45    0.0000
     30 H9         -1.5020   -2.4430   -0.7950 H         1    LIG45    0.0000
     31 H10        -3.8470   -0.4920   -0.8060 H         1    LIG45    0.0000
     32 H11        -3.7450   -2.0310   -1.6830 H         1    LIG45    0.0000
     33 H12        -5.0570   -2.2530    0.4220 H         1    LIG45    0.0000
     34 H13        -3.6020   -3.2710    0.4420 H         1    LIG45    0.0000
     35 H14        -3.9140   -0.5380    1.7750 H         1    LIG45    0.0000
     36 H15        -3.8570   -2.1080    2.6000 H         1    LIG45    0.0000
     37 H16        -1.5700   -2.4900    1.8160 H         1    LIG45    0.0000
     38 H17        -1.6650   -0.9460    2.6870 H         1    LIG45    0.0000
@<TRIPOS>BOND
     1    1    2 2
     2    1    6 1
     3    1   22 1
     4    2    3 1
     5    2    7 1
     6    3    4 2
     7    3   10 1
     8    4    5 1
     9    4   23 1
    10    5    6 2
    11    5   24 1
    12    7    8 1
    13    8    9 1
    14    8   17 1
    15    8   21 1
    16    9   10 2
    17    9   11 1
    18   10   13 1
    19   11   12 2
    20   11   25 1
    21   12   13 1
    22   12   14 1
    23   13   26 1
    24   14   15 1
    25   14   16 2
    26   15   27 1
    27   15   28 1
    28   17   18 1
    29   17   29 1
    30   17   30 1
    31   18   19 1
    32   18   31 1
    33   18   32 1
    34   19   20 1
    35   19   33 1
    36   19   34 1
    37   20   21 1
    38   20   35 1
    39   20   36 1
    40   21   37 1
    41   21   38 1
@<TRIPOS>SUBSTRUCTURE
     1    LIG45    1   GROUP 1   LIG 1
@<TRIPOS>MOLECULE
50778255
   36    39    1     0     0
SMALL
USER_CHARGES


@<TRIPOS>ATOM
      1 O1         13.0650   -9.0530    2.5840 O.3       1    LIG46    0.0000
      2 C1          8.9080   -7.1840   -0.0080 C.3       1    LIG46    0.0000
      3 C2          8.4590   -8.2310    1.0520 C.3       1    LIG46    0.0000
      4 C3         10.8750   -8.5070    1.7070 C.2       1    LIG46    0.0000
      5 C4          9.5340   -8.8460    1.8690 C.2       1    LIG46    0.0000
      6 C5          9.3580   -9.8100    2.8670 C.2       1    LIG46    0.0000
      7 S1         10.8480  -10.3000    3.6050 S.3       1    LIG46    0.0000
      8 C6         11.7100   -9.2030    2.5760 C.2       1    LIG46    0.0000
      9 C7         13.8430   -9.5790    3.5730 C.2       1    LIG46    0.0000
     10 C8         10.3600   -6.9260   -0.0650 C.2       1    LIG46    0.0000
     11 C9         11.2790   -7.5620    0.7560 C.2       1    LIG46    0.0000
     12 S2         12.9040   -7.0500    0.4530 S.3       1    LIG46    0.0000
     13 N1         12.3290   -6.0140   -0.7480 N.2       1    LIG46    0.0000
     14 C10        10.9990   -6.0400   -0.9200 C.2       1    LIG46    0.0000
     15 C11         8.1390  -10.3680    3.2780 C.2       1    LIG46    0.0000
     16 O2          7.0450  -10.0370    2.7700 O.2       1    LIG46    0.0000
     17 N2          8.1200  -11.2900    4.2480 N.am      1    LIG46    0.0000
     18 C12        13.5720   -9.4050    4.9450 C.2       1    LIG46    0.0000
     19 C13        14.4250   -9.9460    5.9250 C.2       1    LIG46    0.0000
     20 C14        15.5630  -10.6550    5.4970 C.2       1    LIG46    0.0000
     21 N3         15.8140  -10.7970    4.1720 N.2       1    LIG46    0.0000
     22 C15        15.0040  -10.2840    3.2120 C.2       1    LIG46    0.0000
     23 C16        14.1240   -9.7620    7.3520 C.3       1    LIG46    0.0000
     24 H1          8.4010   -6.2410    0.2040 H         1    LIG46    0.0000
     25 H2          8.5830   -7.5290   -0.9910 H         1    LIG46    0.0000
     26 H3          7.9280   -9.0300    0.5310 H         1    LIG46    0.0000
     27 H4          7.7540   -7.7440    1.7280 H         1    LIG46    0.0000
     28 H5         10.5090   -5.4680   -1.6090 H         1    LIG46    0.0000
     29 H6          7.2750  -11.6730    4.5300 H         1    LIG46    0.0000
     30 H7          8.9470  -11.5750    4.6660 H         1    LIG46    0.0000
     31 H8         12.7480   -8.8760    5.2330 H         1    LIG46    0.0000
     32 H9         16.2040  -11.0610    6.1790 H         1    LIG46    0.0000
     33 H10        15.2380  -10.4140    2.2280 H         1    LIG46    0.0000
     34 H11        14.8810  -10.2370    7.9780 H         1    LIG46    0.0000
     35 H12        14.0960   -8.6960    7.5850 H         1    LIG46    0.0000
     36 H13        13.1530  -10.2030    7.5810 H         1    LIG46    0.0000
@<TRIPOS>BOND
     1    1    8 1
     2    1    9 1
     3    2    3 1
     4    2   10 1
     5    2   24 1
     6    2   25 1
     7    3    5 1
     8    3   26 1
     9    3   27 1
    10    4    5 1
    11    4    8 2
    12    4   11 1
    13    5    6 2
    14    6    7 1
    15    6   15 1
    16    7    8 1
    17    9   18 2
    18    9   22 1
    19   10   11 2
    20   10   14 1
    21   11   12 1
    22   12   13 1
    23   13   14 2
    24   14   28 1
    25   15   16 2
    26   15   17 1
    27   17   29 1
    28   17   30 1
    29   18   19 1
    30   18   31 1
    31   19   20 2
    32   19   23 1
    33   20   21 1
    34   20   32 1
    35   21   22 2
    36   22   33 1
    37   23   34 1
    38   23   35 1
    39   23   36 1
@<TRIPOS>SUBSTRUCTURE
     1    LIG46    1   GROUP 1   LIG 1
@<TRIPOS>MOLECULE
50778256
   37    40    1     0     0
SMALL
USER_CHARGES


@<TRIPOS>ATOM
      1 O1         12.1130   -5.0920   -1.6940 O.3       1    LIG47    0.0000
      2 C1          8.7710   -7.2960    1.6910 C.3       1    LIG47    0.0000
      3 C2          8.7700   -8.0760    0.3430 C.3       1    LIG47    0.0000
      4 C3         10.4840   -6.4460   -0.5240 C.2       1    LIG47    0.0000
      5 C4          9.6750   -7.5640   -0.7150 C.2       1    LIG47    0.0000
      6 C5          9.8370   -8.1080   -1.9930 C.2       1    LIG47    0.0000
      7 S1         10.9840   -7.2400   -2.9620 S.3       1    LIG47    0.0000
      8 C6         11.2510   -6.1450   -1.6440 C.2       1    LIG47    0.0000
      9 C7         12.8330   -4.8790   -2.8270 C.2       1    LIG47    0.0000
     10 C8          9.6780   -6.1340    1.7480 C.2       1    LIG47    0.0000
     11 C9         10.4820   -5.7440    0.6870 C.2       1    LIG47    0.0000
     12 S2         11.4340   -4.3460    1.0560 S.3       1    LIG47    0.0000
     13 N1         10.7470   -4.3140    2.5970 N.2       1    LIG47    0.0000
     14 C10         9.8550   -5.2880    2.8330 C.2       1    LIG47    0.0000
     15 C11         9.1770   -9.2360   -2.5040 C.2       1    LIG47    0.0000
     16 O2          8.3450   -9.8850   -1.8330 O.2       1    LIG47    0.0000
     17 N2          9.4320   -9.6520   -3.7510 N.am      1    LIG47    0.0000
     18 C12        14.0660   -5.5280   -3.0080 C.2       1    LIG47    0.0000
     19 C13        14.8240   -5.2990   -4.1640 C.2       1    LIG47    0.0000
     20 C14        14.3300   -4.4070   -5.1270 C.2       1    LIG47    0.0000
     21 N3         13.1410   -3.7810   -4.9330 N.pl3     1    LIG47    0.0000
     22 C15        12.3790   -3.9830   -3.8180 C.2       1    LIG47    0.0000
     23 O3         12.7410   -2.9640   -5.8660 O.3       1    LIG47    0.0000
     24 C16        11.0940   -3.2880   -3.6260 C.3       1    LIG47    0.0000
     25 H1          9.0520   -7.9890    2.4860 H         1    LIG47    0.0000
     26 H2          7.7550   -6.9490    1.8870 H         1    LIG47    0.0000
     27 H3          7.7510   -8.0700   -0.0480 H         1    LIG47    0.0000
     28 H4          9.0440   -9.1110    0.5540 H         1    LIG47    0.0000
     29 H5          9.3600   -5.3950    3.7180 H         1    LIG47    0.0000
     30 H6          8.9730  -10.4320   -4.0980 H         1    LIG47    0.0000
     31 H7         10.0720   -9.1770   -4.3030 H         1    LIG47    0.0000
     32 H8         14.4110   -6.1710   -2.2940 H         1    LIG47    0.0000
     33 H9         15.7180   -5.7700   -4.3020 H         1    LIG47    0.0000
     34 H10        14.8700   -4.2280   -5.9750 H         1    LIG47    0.0000
     35 H11        10.8810   -2.6240   -4.4630 H         1    LIG47    0.0000
     36 H12        10.2900   -4.0200   -3.5480 H         1    LIG47    0.0000
     37 H13        11.1320   -2.6960   -2.7110 H         1    LIG47    0.0000
@<TRIPOS>BOND
     1    1    8 1
     2    1    9 1
     3    2    3 1
     4    2   10 1
     5    2   25 1
     6    2   26 1
     7    3    5 1
     8    3   27 1
     9    3   28 1
    10    4    5 1
    11    4    8 2
    12    4   11 1
    13    5    6 2
    14    6    7 1
    15    6   15 1
    16    7    8 1
    17    9   18 2
    18    9   22 1
    19   10   11 2
    20   10   14 1
    21   11   12 1
    22   12   13 1
    23   13   14 2
    24   14   29 1
    25   15   16 2
    26   15   17 1
    27   17   30 1
    28   17   31 1
    29   18   19 1
    30   18   32 1
    31   19   20 2
    32   19   33 1
    33   20   21 1
    34   20   34 1
    35   21   22 2
    36   21   23 1
    37   22   24 1
    38   24   35 1
    39   24   36 1
    40   24   37 1
@<TRIPOS>SUBSTRUCTURE
     1    LIG47    1   GROUP 1   LIG 1
@<TRIPOS>MOLECULE
51122132
   39    42    1     0     0
SMALL
USER_CHARGES


@<TRIPOS>ATOM
      1 C1         11.9610   -3.9420   -1.2820 C.2       1    LIG48    0.0000
      2 N1         11.6160   -4.1380    0.0130 N.2       1    LIG48    0.0000
      3 C2         11.7270   -2.9680    0.6560 C.2       1    LIG48    0.0000
      4 C3         11.4700   -2.6140    1.9910 C.2       1    LIG48    0.0000
      5 C4         11.6560   -1.2470    2.3630 C.2       1    LIG48    0.0000
      6 C5         12.0970   -0.2880    1.3910 C.2       1    LIG48    0.0000
      7 N2         12.3270   -2.6420   -1.4450 N.pl3     1    LIG48    0.0000
      8 C6         12.1660   -2.0440   -0.2620 C.2       1    LIG48    0.0000
      9 C7         12.3810   -0.7020    0.0600 C.2       1    LIG48    0.0000
     10 C8         12.8300    0.1610   -1.0590 C.3       1    LIG48    0.0000
     11 C9         13.5680   -0.6320   -2.1630 C.3       1    LIG48    0.0000
     12 C10        12.8370   -1.9310   -2.5740 C.3       1    LIG48    0.0000
     13 N3         11.9110   -4.9700   -2.1910 N.pl3     1    LIG48    0.0000
     14 C11        12.0460   -4.8180   -3.6070 C.3       1    LIG48    0.0000
     15 C12        10.8370   -5.4430   -4.3240 C.3       1    LIG48    0.0000
     16 N4         10.6460   -6.8430   -3.9220 N.3       1    LIG48    0.0000
     17 C13        10.4690   -6.9140   -2.4650 C.3       1    LIG48    0.0000
     18 C14        11.6960   -6.3200   -1.7580 C.3       1    LIG48    0.0000
     19 Br1        12.3050    1.5340    1.7890 Br        1    LIG48    0.0000
     20 Br2        11.3080   -0.7350    4.1350 Br        1    LIG48    0.0000
     21 C15        11.0160   -3.7130    2.8730 C.3       1    LIG48    0.0000
     22 H1         11.9590    0.6560   -1.4930 H         1    LIG48    0.0000
     23 H2         13.5240    0.9210   -0.7010 H         1    LIG48    0.0000
     24 H3         13.6950    0.0040   -3.0400 H         1    LIG48    0.0000
     25 H4         14.5570   -0.9010   -1.7870 H         1    LIG48    0.0000
     26 H5         12.0130   -1.6820   -3.2440 H         1    LIG48    0.0000
     27 H6         13.5640   -2.5490   -3.1020 H         1    LIG48    0.0000
     28 H7         12.9560   -5.3210   -3.9360 H         1    LIG48    0.0000
     29 H8         12.0850   -3.7830   -3.9240 H         1    LIG48    0.0000
     30 H9          9.9390   -4.8700   -4.0870 H         1    LIG48    0.0000
     31 H10        11.0030   -5.4050   -5.4010 H         1    LIG48    0.0000
     32 H11        11.5140   -7.3370   -4.1390 H         1    LIG48    0.0000
     33 H12         9.5730   -6.3640   -2.1710 H         1    LIG48    0.0000
     34 H13        10.3560   -7.9580   -2.1700 H         1    LIG48    0.0000
     35 H14        12.5720   -6.9150   -2.0220 H         1    LIG48    0.0000
     36 H15        11.5450   -6.4060   -0.6810 H         1    LIG48    0.0000
     37 H16        10.8280   -3.4020    3.8960 H         1    LIG48    0.0000
     38 H17        10.0930   -4.1350    2.4730 H         1    LIG48    0.0000
     39 H18        11.7770   -4.4950    2.8930 H         1    LIG48    0.0000
@<TRIPOS>BOND
     1    1    2 2
     2    1    7 1
     3    1   13 1
     4    2    3 1
     5    3    4 2
     6    3    8 1
     7    4    5 1
     8    4   21 1
     9    5    6 2
    10    5   20 1
    11    6    9 1
    12    6   19 1
    13    7    8 1
    14    7   12 1
    15    8    9 2
    16    9   10 1
    17   10   11 1
    18   10   22 1
    19   10   23 1
    20   11   12 1
    21   11   24 1
    22   11   25 1
    23   12   26 1
    24   12   27 1
    25   13   14 1
    26   13   18 1
    27   14   15 1
    28   14   28 1
    29   14   29 1
    30   15   16 1
    31   15   30 1
    32   15   31 1
    33   16   17 1
    34   16   32 1
    35   17   18 1
    36   17   33 1
    37   17   34 1
    38   18   35 1
    39   18   36 1
    40   21   37 1
    41   21   38 1
    42   21   39 1
@<TRIPOS>SUBSTRUCTURE
     1    LIG48    1   GROUP 1   LIG 1
@<TRIPOS>MOLECULE
51419717
   54    59    1     0     0
SMALL
USER_CHARGES


@<TRIPOS>ATOM
      1 C1         15.5110  -12.6550    1.0330 C.2       1    LIG49    0.0000
      2 N1         15.4810  -13.6040    0.1000 N.am      1    LIG49    0.0000
      3 C2         14.6220  -13.3130   -0.9750 C.3       1    LIG49    0.0000
      4 C3         13.9510  -11.9870   -0.5810 C.3       1    LIG49    0.0000
      5 C4         14.6400  -11.5140    0.7220 C.3       1    LIG49    0.0000
      6 C5         13.5860  -11.2700    1.8270 C.3       1    LIG49    0.0000
      7 C6         14.1660  -10.5300    3.0480 C.3       1    LIG49    0.0000
      8 N2         14.9400   -9.3830    2.6770 N.pl3     1    LIG49    0.0000
      9 C7         16.0090   -9.6250    1.7600 C.3       1    LIG49    0.0000
     10 C8         15.4470  -10.2200    0.4590 C.3       1    LIG49    0.0000
     11 O1         16.2270  -12.7490    2.0540 O.2       1    LIG49    0.0000
     12 C9         15.3950   -6.1040    4.3450 C.2       1    LIG49    0.0000
     13 C10        15.6870   -7.3850    3.8710 C.2       1    LIG49    0.0000
     14 C11        14.6870   -8.1310    3.1920 C.2       1    LIG49    0.0000
     15 C12        13.4020   -7.5230    3.0550 C.2       1    LIG49    0.0000
     16 C13        13.1800   -6.2310    3.5870 C.2       1    LIG49    0.0000
     17 N3         14.1730   -5.5510    4.2070 N.2       1    LIG49    0.0000
     18 N4         16.4600   -5.5800    4.9610 N.pl3     1    LIG49    0.0000
     19 C14        16.9960   -7.6390    4.3030 C.2       1    LIG49    0.0000
     20 C15        17.4430   -6.4900    4.9520 C.2       1    LIG49    0.0000
     21 N5          9.4460   -9.5580   -0.2450 N.pl3     1    LIG49    0.0000
     22 N6          9.9990   -9.3480   -1.4050 N.2       1    LIG49    0.0000
     23 C16        11.1990   -8.7640   -1.2320 C.2       1    LIG49    0.0000
     24 C17        11.3960   -8.6070    0.1290 C.2       1    LIG49    0.0000
     25 C18        12.4570   -8.0710    0.8720 C.2       1    LIG49    0.0000
     26 C19        12.3580   -8.0760    2.2840 C.2       1    LIG49    0.0000
     27 C20        11.1900   -8.5860    2.9060 C.2       1    LIG49    0.0000
     28 C21        10.1350   -9.1190    2.1360 C.2       1    LIG49    0.0000
     29 C22        10.2610   -9.1230    0.7360 C.2       1    LIG49    0.0000
     30 C23         8.1700  -10.1640   -0.1020 C.3       1    LIG49    0.0000
     31 Cl1        17.9170   -9.0550    4.2490 Cl        1    LIG49    0.0000
     32 H1         16.0140  -14.4120    0.1540 H         1    LIG49    0.0000
     33 H2         15.1960  -13.1980   -1.8950 H         1    LIG49    0.0000
     34 H3         13.8760  -14.1010   -1.0910 H         1    LIG49    0.0000
     35 H4         14.0700  -11.2560   -1.3820 H         1    LIG49    0.0000
     36 H5         12.8870  -12.1600   -0.4150 H         1    LIG49    0.0000
     37 H6         13.1630  -12.2200    2.1580 H         1    LIG49    0.0000
     38 H7         12.7780  -10.6770    1.4110 H         1    LIG49    0.0000
     39 H8         13.3520  -10.2710    3.7250 H         1    LIG49    0.0000
     40 H9         14.8250  -11.2180    3.5790 H         1    LIG49    0.0000
     41 H10        16.5490   -8.7080    1.5140 H         1    LIG49    0.0000
     42 H11        16.7080  -10.3430    2.1850 H         1    LIG49    0.0000
     43 H12        16.2710  -10.4260   -0.2270 H         1    LIG49    0.0000
     44 H13        14.7940   -9.4810   -0.0040 H         1    LIG49    0.0000
     45 H14        12.2700   -5.7760    3.4830 H         1    LIG49    0.0000
     46 H15        16.4990   -4.7060    5.3770 H         1    LIG49    0.0000
     47 H16        18.3570   -6.3710    5.3910 H         1    LIG49    0.0000
     48 H17        11.8470   -8.4900   -1.9720 H         1    LIG49    0.0000
     49 H18        13.2810   -7.6940    0.4000 H         1    LIG49    0.0000
     50 H19        11.1050   -8.5790    3.9240 H         1    LIG49    0.0000
     51 H20         9.3010   -9.4930    2.5890 H         1    LIG49    0.0000
     52 H21         7.8840  -10.2590    0.9460 H         1    LIG49    0.0000
     53 H22         7.4260   -9.5570   -0.6170 H         1    LIG49    0.0000
     54 H23         8.1930  -11.1560   -0.5530 H         1    LIG49    0.0000
@<TRIPOS>BOND
     1    1    2 1
     2    1    5 1
     3    1   11 2
     4    2    3 1
     5    2   32 1
     6    3    4 1
     7    3   33 1
     8    3   34 1
     9    4    5 1
    10    4   35 1
    11    4   36 1
    12    5    6 1
    13    5   10 1
    14    6    7 1
    15    6   37 1
    16    6   38 1
    17    7    8 1
    18    7   39 1
    19    7   40 1
    20    8    9 1
    21    8   14 1
    22    9   10 1
    23    9   41 1
    24    9   42 1
    25   10   43 1
    26   10   44 1
    27   12   13 1
    28   12   17 2
    29   12   18 1
    30   13   14 2
    31   13   19 1
    32   14   15 1
    33   15   16 2
    34   15   26 1
    35   16   17 1
    36   16   45 1
    37   18   20 1
    38   18   46 1
    39   19   20 2
    40   19   31 1
    41   20   47 1
    42   21   22 1
    43   21   29 1
    44   21   30 1
    45   22   23 2
    46   23   24 1
    47   23   48 1
    48   24   25 1
    49   24   29 2
    50   25   26 2
    51   25   49 1
    52   26   27 1
    53   27   28 2
    54   27   50 1
    55   28   29 1
    56   28   51 1
    57   30   52 1
    58   30   53 1
    59   30   54 1
@<TRIPOS>SUBSTRUCTURE
     1    LIG49    1   GROUP 1   LIG 1
@<TRIPOS>MOLECULE
51471945
   39    42    1     0     0
SMALL
USER_CHARGES


@<TRIPOS>ATOM
      1 C1         11.9610   -3.9420   -1.2820 C.2       1    LIG50    0.0000
      2 N1         11.6160   -4.1380    0.0130 N.2       1    LIG50    0.0000
      3 C2         11.7270   -2.9680    0.6560 C.2       1    LIG50    0.0000
      4 C3         11.4700   -2.6140    1.9910 C.2       1    LIG50    0.0000
      5 C4         11.6560   -1.2470    2.3630 C.2       1    LIG50    0.0000
      6 C5         12.0970   -0.2880    1.3910 C.2       1    LIG50    0.0000
      7 N2         12.3270   -2.6420   -1.4450 N.pl3     1    LIG50    0.0000
      8 C6         12.1660   -2.0440   -0.2620 C.2       1    LIG50    0.0000
      9 C7         12.3810   -0.7020    0.0600 C.2       1    LIG50    0.0000
     10 C8         12.8300    0.1610   -1.0590 C.3       1    LIG50    0.0000
     11 C9         13.5680   -0.6320   -2.1630 C.3       1    LIG50    0.0000
     12 C10        12.8370   -1.9310   -2.5740 C.3       1    LIG50    0.0000
     13 N3         11.9110   -4.9700   -2.1910 N.pl3     1    LIG50    0.0000
     14 C11        12.0460   -4.8180   -3.6070 C.3       1    LIG50    0.0000
     15 C12        10.8370   -5.4430   -4.3240 C.3       1    LIG50    0.0000
     16 N4         10.6460   -6.8430   -3.9220 N.3       1    LIG50    0.0000
     17 C13        10.4690   -6.9140   -2.4650 C.3       1    LIG50    0.0000
     18 C14        11.6960   -6.3200   -1.7580 C.3       1    LIG50    0.0000
     19 Br1        12.3050    1.5340    1.7890 Br        1    LIG50    0.0000
     20 Br2        11.3080   -0.7350    4.1350 Br        1    LIG50    0.0000
     21 C15        11.0160   -3.7130    2.8730 C.3       1    LIG50    0.0000
     22 H1         11.9590    0.6560   -1.4930 H         1    LIG50    0.0000
     23 H2         13.5240    0.9210   -0.7010 H         1    LIG50    0.0000
     24 H3         13.6950    0.0040   -3.0400 H         1    LIG50    0.0000
     25 H4         14.5570   -0.9010   -1.7870 H         1    LIG50    0.0000
     26 H5         12.0130   -1.6820   -3.2440 H         1    LIG50    0.0000
     27 H6         13.5640   -2.5490   -3.1020 H         1    LIG50    0.0000
     28 H7         12.9560   -5.3210   -3.9360 H         1    LIG50    0.0000
     29 H8         12.0850   -3.7830   -3.9240 H         1    LIG50    0.0000
     30 H9          9.9390   -4.8700   -4.0870 H         1    LIG50    0.0000
     31 H10        11.0030   -5.4050   -5.4010 H         1    LIG50    0.0000
     32 H11        11.5140   -7.3370   -4.1390 H         1    LIG50    0.0000
     33 H12         9.5730   -6.3640   -2.1710 H         1    LIG50    0.0000
     34 H13        10.3560   -7.9580   -2.1700 H         1    LIG50    0.0000
     35 H14        12.5720   -6.9150   -2.0220 H         1    LIG50    0.0000
     36 H15        11.5450   -6.4060   -0.6810 H         1    LIG50    0.0000
     37 H16        10.8280   -3.4020    3.8960 H         1    LIG50    0.0000
     38 H17        10.0930   -4.1350    2.4730 H         1    LIG50    0.0000
     39 H18        11.7770   -4.4950    2.8930 H         1    LIG50    0.0000
@<TRIPOS>BOND
     1    1    2 2
     2    1    7 1
     3    1   13 1
     4    2    3 1
     5    3    4 2
     6    3    8 1
     7    4    5 1
     8    4   21 1
     9    5    6 2
    10    5   20 1
    11    6    9 1
    12    6   19 1
    13    7    8 1
    14    7   12 1
    15    8    9 2
    16    9   10 1
    17   10   11 1
    18   10   22 1
    19   10   23 1
    20   11   12 1
    21   11   24 1
    22   11   25 1
    23   12   26 1
    24   12   27 1
    25   13   14 1
    26   13   18 1
    27   14   15 1
    28   14   28 1
    29   14   29 1
    30   15   16 1
    31   15   30 1
    32   15   31 1
    33   16   17 1
    34   16   32 1
    35   17   18 1
    36   17   33 1
    37   17   34 1
    38   18   35 1
    39   18   36 1
    40   21   37 1
    41   21   38 1
    42   21   39 1
@<TRIPOS>SUBSTRUCTURE
     1    LIG50    1   GROUP 1   LIG 1
@<TRIPOS>MOLECULE
51419711
   54    59    1     0     0
SMALL
USER_CHARGES


@<TRIPOS>ATOM
      1 C1         15.1320  -12.2170    2.3560 C.2       1    LIG51    0.0000
      2 N1         15.8280  -13.3180    2.6270 N.am      1    LIG51    0.0000
      3 C2         15.7790  -14.2830    1.6030 C.3       1    LIG51    0.0000
      4 C3         14.8340  -13.6810    0.5490 C.3       1    LIG51    0.0000
      5 C4         14.4750  -12.2590    1.0460 C.3       1    LIG51    0.0000
      6 C5         15.0460  -11.1630    0.1210 C.3       1    LIG51    0.0000
      7 C6         14.2530  -11.0750   -1.1960 C.3       1    LIG51    0.0000
      8 N2         12.8350  -10.9890   -0.9870 N.2       1    LIG51    0.0000
      9 C7         12.2730  -12.0380   -0.1910 C.3       1    LIG51    0.0000
     10 C8         12.9500  -12.0670    1.1890 C.3       1    LIG51    0.0000
     11 O1         15.0740  -11.2430    3.1380 O.2       1    LIG51    0.0000
     12 C9         10.1350   -9.5980   -3.1020 C.2       1    LIG51    0.0000
     13 C10        10.8880  -10.4940   -2.3470 C.2       1    LIG51    0.0000
     14 C11        12.0520  -10.0710   -1.6610 C.2       1    LIG51    0.0000
     15 C12        12.3840   -8.6840   -1.7560 C.2       1    LIG51    0.0000
     16 C13        11.5780   -7.8310   -2.5530 C.2       1    LIG51    0.0000
     17 N3         10.4830   -8.2990   -3.2010 N.2       1    LIG51    0.0000
     18 N4          9.1100  -10.2410   -3.6780 N.pl3     1    LIG51    0.0000
     19 C14        10.2830  -11.7360   -2.5250 C.2       1    LIG51    0.0000
     20 C15         9.1770  -11.5400   -3.3460 C.2       1    LIG51    0.0000
     21 C16        15.6840   -6.8080    2.7170 C.2       1    LIG51    0.0000
     22 N5         14.5680   -7.5390    2.5290 N.pl3     1    LIG51    0.0000
     23 C17        14.3490   -7.5720    1.2060 C.2       1    LIG51    0.0000
     24 C18        15.3690   -6.8470    0.6000 C.2       1    LIG51    0.0000
     25 N6         16.1920   -6.3740    1.5470 N.2       1    LIG51    0.0000
     26 C19        15.4300   -6.7050   -0.7930 C.2       1    LIG51    0.0000
     27 C20        14.4330   -7.3220   -1.5750 C.2       1    LIG51    0.0000
     28 C21        13.3940   -8.0760   -0.9720 C.2       1    LIG51    0.0000
     29 C22        13.3460   -8.1870    0.4390 C.2       1    LIG51    0.0000
     30 C23        13.8050   -8.1510    3.5620 C.3       1    LIG51    0.0000
     31 H1         16.3320  -13.4330    3.4470 H         1    LIG51    0.0000
     32 H2         16.7750  -14.4390    1.1860 H         1    LIG51    0.0000
     33 H3         15.3800  -15.2230    1.9860 H         1    LIG51    0.0000
     34 H4         13.9410  -14.3030    0.4730 H         1    LIG51    0.0000
     35 H5         15.3330  -13.6490   -0.4200 H         1    LIG51    0.0000
     36 H6         16.0900  -11.3800   -0.1090 H         1    LIG51    0.0000
     37 H7         15.0040  -10.2030    0.6280 H         1    LIG51    0.0000
     38 H8         14.6420  -10.2480   -1.7890 H         1    LIG51    0.0000
     39 H9         14.4450  -11.9890   -1.7600 H         1    LIG51    0.0000
     40 H10        11.2060  -11.8910   -0.0190 H         1    LIG51    0.0000
     41 H11        12.4240  -12.9960   -0.6900 H         1    LIG51    0.0000
     42 H12        12.5240  -12.8790    1.7790 H         1    LIG51    0.0000
     43 H13        12.7460  -11.1210    1.6950 H         1    LIG51    0.0000
     44 H14        11.7940   -6.8350   -2.6250 H         1    LIG51    0.0000
     45 H15         8.4440   -9.8370   -4.2550 H         1    LIG51    0.0000
     46 H16        10.5920  -12.6290   -2.1440 H         1    LIG51    0.0000
     47 H17         8.5330  -12.2670   -3.6590 H         1    LIG51    0.0000
     48 H18        16.0980   -6.6110    3.6290 H         1    LIG51    0.0000
     49 H19        16.1800   -6.1690   -1.2300 H         1    LIG51    0.0000
     50 H20        14.4740   -7.2250   -2.5920 H         1    LIG51    0.0000
     51 H21        12.6030   -8.7160    0.8990 H         1    LIG51    0.0000
     52 H22        12.9590   -8.7070    3.1560 H         1    LIG51    0.0000
     53 H23        14.4370   -8.8410    4.1220 H         1    LIG51    0.0000
     54 H24        13.4270   -7.3840    4.2400 H         1    LIG51    0.0000
@<TRIPOS>BOND
     1    1    2 1
     2    1    5 1
     3    1   11 2
     4    2    3 1
     5    2   31 1
     6    3    4 1
     7    3   32 1
     8    3   33 1
     9    4    5 1
    10    4   34 1
    11    4   35 1
    12    5    6 1
    13    5   10 1
    14    6    7 1
    15    6   36 1
    16    6   37 1
    17    7    8 1
    18    7   38 1
    19    7   39 1
    20    8    9 1
    21    8   14 1
    22    9   10 1
    23    9   40 1
    24    9   41 1
    25   10   42 1
    26   10   43 1
    27   12   13 1
    28   12   17 2
    29   12   18 1
    30   13   14 2
    31   13   19 1
    32   14   15 1
    33   15   16 2
    34   15   28 1
    35   16   17 1
    36   16   44 1
    37   18   20 1
    38   18   45 1
    39   19   20 2
    40   19   46 1
    41   20   47 1
    42   21   22 1
    43   21   25 2
    44   21   48 1
    45   22   23 1
    46   22   30 1
    47   23   24 1
    48   23   29 2
    49   24   25 1
    50   24   26 2
    51   26   27 1
    52   26   49 1
    53   27   28 2
    54   27   50 1
    55   28   29 1
    56   29   51 1
    57   30   52 1
    58   30   53 1
    59   30   54 1
@<TRIPOS>SUBSTRUCTURE
     1    LIG51    1   GROUP 1   LIG 1
@<TRIPOS>MOLECULE
692607
   41    43    1     0     0
SMALL
USER_CHARGES


@<TRIPOS>ATOM
      1 C1         -0.3390    0.7980   -0.9510 C.2       1    LIG52    0.0000
      2 C2         -1.3420    0.5570    0.0230 C.2       1    LIG52    0.0000
      3 O1          0.4290   -0.2160   -1.4590 O.3       1    LIG52    0.0000
      4 C3          0.0500   -1.6010   -1.3480 C.3       1    LIG52    0.0000
      5 C4         -0.8890   -1.8240   -0.2260 C.2       1    LIG52    0.0000
      6 C5         -1.5450   -0.7940    0.4430 C.2       1    LIG52    0.0000
      7 C6         -1.3300   -3.0230    0.3000 C.2       1    LIG52    0.0000
      8 C7         -2.2300   -2.7200    1.3150 C.2       1    LIG52    0.0000
      9 N1         -2.3210   -1.3640    1.4100 N.pl3     1    LIG52    0.0000
     10 C8         -2.9050   -3.7080    2.0680 C.2       1    LIG52    0.0000
     11 O2         -3.7500   -3.4150    2.9400 O.2       1    LIG52    0.0000
     12 N2         -2.6880   -5.0170    1.8680 N.am      1    LIG52    0.0000
     13 C9         -3.0640   -0.6770    2.4240 C.3       1    LIG52    0.0000
     14 C10        -2.0910    1.6630    0.4840 C.2       1    LIG52    0.0000
     15 C11        -1.8080    2.9530    0.0070 C.2       1    LIG52    0.0000
     16 N3         -0.8230    3.1350   -0.9040 N.2       1    LIG52    0.0000
     17 C12        -0.0880    2.1070   -1.3910 C.2       1    LIG52    0.0000
     18 C13        -4.5130   -0.4380    1.9750 C.3       1    LIG52    0.0000
     19 C14         1.3550   -2.3950   -1.1450 C.3       1    LIG52    0.0000
     20 C15        -0.6010   -2.0240   -2.6780 C.3       1    LIG52    0.0000
     21 O3         -5.1630    0.3960    2.9300 O.3       1    LIG52    0.0000
     22 C16        -6.5260    0.7170    2.6680 C.3       1    LIG52    0.0000
     23 H1         -1.0500   -3.9530   -0.0120 H         1    LIG52    0.0000
     24 H2         -3.1750   -5.6680    2.3960 H         1    LIG52    0.0000
     25 H3         -2.0500   -5.3110    1.2010 H         1    LIG52    0.0000
     26 H4         -3.0770   -1.2500    3.3500 H         1    LIG52    0.0000
     27 H5         -2.5860    0.2650    2.6820 H         1    LIG52    0.0000
     28 H6         -2.8580    1.5570    1.1390 H         1    LIG52    0.0000
     29 H7         -2.3470    3.7520    0.3410 H         1    LIG52    0.0000
     30 H8          0.6440    2.2860   -2.0800 H         1    LIG52    0.0000
     31 H9         -4.5250    0.0450    0.9980 H         1    LIG52    0.0000
     32 H10        -5.0340   -1.3940    1.9070 H         1    LIG52    0.0000
     33 H11         1.1510   -3.4660   -1.1230 H         1    LIG52    0.0000
     34 H12         2.0400   -2.1830   -1.9660 H         1    LIG52    0.0000
     35 H13         1.8280   -2.0980   -0.2080 H         1    LIG52    0.0000
     36 H14        -0.8480   -3.0860   -2.6600 H         1    LIG52    0.0000
     37 H15        -1.5100   -1.4450   -2.8490 H         1    LIG52    0.0000
     38 H16         0.0930   -1.8360   -3.4980 H         1    LIG52    0.0000
     39 H17        -6.9030    1.3540    3.4680 H         1    LIG52    0.0000
     40 H18        -6.6060    1.2490    1.7190 H         1    LIG52    0.0000
     41 H19        -7.1200   -0.1960    2.6260 H         1    LIG52    0.0000
@<TRIPOS>BOND
     1    1    2 1
     2    1    3 1
     3    1   17 2
     4    2    6 1
     5    2   14 2
     6    3    4 1
     7    4    5 1
     8    4   19 1
     9    4   20 1
    10    5    6 2
    11    5    7 1
    12    6    9 1
    13    7    8 2
    14    7   23 1
    15    8    9 1
    16    8   10 1
    17    9   13 1
    18   10   11 2
    19   10   12 1
    20   12   24 1
    21   12   25 1
    22   13   18 1
    23   13   26 1
    24   13   27 1
    25   14   15 1
    26   14   28 1
    27   15   16 2
    28   15   29 1
    29   16   17 1
    30   17   30 1
    31   18   21 1
    32   18   31 1
    33   18   32 1
    34   19   33 1
    35   19   34 1
    36   19   35 1
    37   20   36 1
    38   20   37 1
    39   20   38 1
    40   21   22 1
    41   22   39 1
    42   22   40 1
    43   22   41 1
@<TRIPOS>SUBSTRUCTURE
     1    LIG52    1   GROUP 1   LIG 1
@<TRIPOS>MOLECULE
692587
   31    33    1     0     0
SMALL
USER_CHARGES


@<TRIPOS>ATOM
      1 C1         -1.4010    0.5490    1.2330 C.2       1    LIG53    0.0000
      2 C2         -0.2360   -0.0050    0.6790 C.2       1    LIG53    0.0000
      3 C3          0.9930    0.6650    0.8780 C.2       1    LIG53    0.0000
      4 C4          1.0310    1.8630    1.6170 C.2       1    LIG53    0.0000
      5 C5         -0.1660    2.3700    2.1470 C.2       1    LIG53    0.0000
      6 N1         -1.3300    1.7040    1.9410 N.2       1    LIG53    0.0000
      7 O1         -0.3100   -1.1760   -0.0380 O.3       1    LIG53    0.0000
      8 C6          0.8360   -1.8230   -0.6430 C.3       1    LIG53    0.0000
      9 C7          2.1010   -1.0890   -0.4060 C.2       1    LIG53    0.0000
     10 C8          2.1450    0.0920    0.3190 C.2       1    LIG53    0.0000
     11 C9          3.4010   -1.3710   -0.8060 C.2       1    LIG53    0.0000
     12 C10         4.2070   -0.3470   -0.3090 C.2       1    LIG53    0.0000
     13 N2          3.4190    0.5150    0.3610 N.pl3     1    LIG53    0.0000
     14 C11         0.9210   -3.2400   -0.0460 C.3       1    LIG53    0.0000
     15 C12         0.5540   -1.9250   -2.1530 C.3       1    LIG53    0.0000
     16 C13         5.5930   -0.2100   -0.4600 C.2       1    LIG53    0.0000
     17 N3          6.3240   -1.1050   -1.1400 N.am      1    LIG53    0.0000
     18 O2          6.1800    0.7700    0.0480 O.2       1    LIG53    0.0000
     19 H1         -2.3000    0.0840    1.1050 H         1    LIG53    0.0000
     20 H2          1.9080    2.3610    1.7710 H         1    LIG53    0.0000
     21 H3         -0.1620    3.2360    2.6860 H         1    LIG53    0.0000
     22 H4          3.7020   -2.1760   -1.3570 H         1    LIG53    0.0000
     23 H5          3.7300    1.3180    0.8060 H         1    LIG53    0.0000
     24 H6          1.7270   -3.8050   -0.5170 H         1    LIG53    0.0000
     25 H7          1.1020   -3.1800    1.0280 H         1    LIG53    0.0000
     26 H8         -0.0220   -3.7610   -0.2150 H         1    LIG53    0.0000
     27 H9          1.3550   -2.4690   -2.6550 H         1    LIG53    0.0000
     28 H10        -0.3860   -2.4530   -2.3120 H         1    LIG53    0.0000
     29 H11         0.4720   -0.9260   -2.5840 H         1    LIG53    0.0000
     30 H12         7.2810   -0.9760   -1.2240 H         1    LIG53    0.0000
     31 H13         5.8990   -1.8750   -1.5450 H         1    LIG53    0.0000
@<TRIPOS>BOND
     1    1    2 2
     2    1    6 1
     3    1   19 1
     4    2    3 1
     5    2    7 1
     6    3    4 2
     7    3   10 1
     8    4    5 1
     9    4   20 1
    10    5    6 2
    11    5   21 1
    12    7    8 1
    13    8    9 1
    14    8   14 1
    15    8   15 1
    16    9   10 2
    17    9   11 1
    18   10   13 1
    19   11   12 2
    20   11   22 1
    21   12   13 1
    22   12   16 1
    23   13   23 1
    24   14   24 1
    25   14   25 1
    26   14   26 1
    27   15   27 1
    28   15   28 1
    29   15   29 1
    30   16   17 1
    31   16   18 2
    32   17   30 1
    33   17   31 1
@<TRIPOS>SUBSTRUCTURE
     1    LIG53    1   GROUP 1   LIG 1
@<TRIPOS>MOLECULE
50778308
   26    28    1     0     0
SMALL
USER_CHARGES


@<TRIPOS>ATOM
      1 C1          7.2570   -7.3670    1.0610 C.3       1    LIG54    0.0000
      2 C2          8.4730   -8.2040    0.5670 C.3       1    LIG54    0.0000
      3 C3          9.2970   -8.2890    2.9460 C.2       1    LIG54    0.0000
      4 C4          9.4480   -8.6240    1.6030 C.2       1    LIG54    0.0000
      5 C5         10.6040   -9.3800    1.3840 C.2       1    LIG54    0.0000
      6 S1         11.5060   -9.6840    2.8330 S.3       1    LIG54    0.0000
      7 C6         10.3280   -8.7890    3.7340 C.2       1    LIG54    0.0000
      8 S2         10.4440   -8.5520    5.4480 S.3       1    LIG54    0.0000
      9 C7         11.9520   -9.4350    5.8870 C.3       1    LIG54    0.0000
     10 C8         11.0500   -9.8740    0.1500 C.2       1    LIG54    0.0000
     11 O1         12.1070  -10.5390    0.0960 O.2       1    LIG54    0.0000
     12 O2         10.3800   -9.6580   -1.0010 O.3       1    LIG54    0.0000
     13 C9          7.2310   -7.0850    2.5090 C.2       1    LIG54    0.0000
     14 C10         8.2060   -7.5300    3.3890 C.2       1    LIG54    0.0000
     15 S3          7.8920   -7.0380    5.0190 S.3       1    LIG54    0.0000
     16 N1          6.4880   -6.2630    4.4960 N.2       1    LIG54    0.0000
     17 C11         6.2570   -6.3600    3.1770 C.2       1    LIG54    0.0000
     18 H1          6.3430   -7.9020    0.7990 H         1    LIG54    0.0000
     19 H2          7.2560   -6.4150    0.5270 H         1    LIG54    0.0000
     20 H3          9.0050   -7.6140   -0.1820 H         1    LIG54    0.0000
     21 H4          8.0870   -9.1000    0.0790 H         1    LIG54    0.0000
     22 H5         12.1230   -9.3430    6.9600 H         1    LIG54    0.0000
     23 H6         11.8500  -10.4880    5.6270 H         1    LIG54    0.0000
     24 H7         12.7990   -9.0060    5.3500 H         1    LIG54    0.0000
     25 H8         10.8090  -10.0600   -1.7840 H         1    LIG54    0.0000
     26 H9          5.4480   -5.9420    2.7170 H         1    LIG54    0.0000
@<TRIPOS>BOND
     1    1    2 1
     2    1   13 1
     3    1   18 1
     4    1   19 1
     5    2    4 1
     6    2   20 1
     7    2   21 1
     8    3    4 1
     9    3    7 2
    10    3   14 1
    11    4    5 2
    12    5    6 1
    13    5   10 1
    14    6    7 1
    15    7    8 1
    16    8    9 1
    17    9   22 1
    18    9   23 1
    19    9   24 1
    20   10   11 2
    21   10   12 1
    22   12   25 1
    23   13   14 2
    24   13   17 1
    25   14   15 1
    26   15   16 1
    27   16   17 2
    28   17   26 1
@<TRIPOS>SUBSTRUCTURE
     1    LIG54    1   GROUP 1   LIG 1
@<TRIPOS>MOLECULE
51419710
   50    55    1     0     0
SMALL
USER_CHARGES


@<TRIPOS>ATOM
      1 C1         15.3400  -11.8740    2.0400 C.2       1    LIG55    0.0000
      2 N1         16.5290  -12.3140    1.6370 N.am      1    LIG55    0.0000
      3 C2         16.5000  -12.9710    0.3940 C.3       1    LIG55    0.0000
      4 C3         15.0320  -12.8770   -0.0550 C.3       1    LIG55    0.0000
      5 C4         14.2600  -12.1770    1.0900 C.3       1    LIG55    0.0000
      6 C5         13.1980  -13.1290    1.6830 C.3       1    LIG55    0.0000
      7 C6         12.2890  -12.4060    2.6940 C.3       1    LIG55    0.0000
      8 N2         11.6900  -11.2390    2.1150 N.pl3     1    LIG55    0.0000
      9 C7         12.6310  -10.2720    1.6210 C.3       1    LIG55    0.0000
     10 C8         13.5550  -10.9070    0.5670 C.3       1    LIG55    0.0000
     11 O1         15.1900  -11.2760    3.1280 O.2       1    LIG55    0.0000
     12 C9          8.0660  -11.8660    1.6050 C.2       1    LIG55    0.0000
     13 C10         9.4370  -12.0890    1.7200 C.2       1    LIG55    0.0000
     14 C11        10.3210  -11.0380    2.0700 C.2       1    LIG55    0.0000
     15 C12         9.7220   -9.7650    2.3420 C.2       1    LIG55    0.0000
     16 C13         8.3190   -9.6110    2.1910 C.2       1    LIG55    0.0000
     17 N3          7.5290  -10.6510    1.8310 N.2       1    LIG55    0.0000
     18 N4          7.4470  -12.9940    1.2320 N.pl3     1    LIG55    0.0000
     19 C14         9.6220  -13.4230    1.3600 C.2       1    LIG55    0.0000
     20 C15         8.3690  -13.9560    1.0750 C.2       1    LIG55    0.0000
     21 S1         12.6330   -5.0510    4.5390 S.3       1    LIG55    0.0000
     22 C16        11.8860   -4.2810    3.1740 C.2       1    LIG55    0.0000
     23 N5         11.1100   -5.0570    2.3980 N.2       1    LIG55    0.0000
     24 C17        11.0740   -6.3130    2.8570 C.2       1    LIG55    0.0000
     25 C18        11.8400   -6.4930    4.0080 C.2       1    LIG55    0.0000
     26 C19        11.9160   -7.7500    4.6250 C.2       1    LIG55    0.0000
     27 C20        11.2090   -8.8300    4.0650 C.2       1    LIG55    0.0000
     28 C21        10.4330   -8.6650    2.8910 C.2       1    LIG55    0.0000
     29 C22        10.3640   -7.3840    2.2910 C.2       1    LIG55    0.0000
     30 H1         17.3370  -12.1980    2.1610 H         1    LIG55    0.0000
     31 H2         17.1540  -12.4660   -0.3180 H         1    LIG55    0.0000
     32 H3         16.8020  -14.0130    0.5110 H         1    LIG55    0.0000
     33 H4         14.9740  -12.2940   -0.9760 H         1    LIG55    0.0000
     34 H5         14.6400  -13.8780   -0.2430 H         1    LIG55    0.0000
     35 H6         13.6820  -13.9750    2.1740 H         1    LIG55    0.0000
     36 H7         12.5840  -13.5080    0.8680 H         1    LIG55    0.0000
     37 H8         11.5540  -13.1060    3.0880 H         1    LIG55    0.0000
     38 H9         12.8970  -12.0870    3.5410 H         1    LIG55    0.0000
     39 H10        12.1400   -9.4340    1.1280 H         1    LIG55    0.0000
     40 H11        13.2330   -9.8890    2.4450 H         1    LIG55    0.0000
     41 H12        14.2960  -10.1710    0.2490 H         1    LIG55    0.0000
     42 H13        12.9450  -11.1760   -0.2970 H         1    LIG55    0.0000
     43 H14         7.8730   -8.7130    2.3860 H         1    LIG55    0.0000
     44 H15         6.4940  -13.0920    1.0840 H         1    LIG55    0.0000
     45 H16        10.5030  -13.9270    1.3030 H         1    LIG55    0.0000
     46 H17         8.1840  -14.9160    0.7830 H         1    LIG55    0.0000
     47 H18        12.0290   -3.2910    2.9720 H         1    LIG55    0.0000
     48 H19        12.4760   -7.8780    5.4690 H         1    LIG55    0.0000
     49 H20        11.2670   -9.7430    4.5190 H         1    LIG55    0.0000
     50 H21         9.8120   -7.2300    1.4450 H         1    LIG55    0.0000
@<TRIPOS>BOND
     1    1    2 1
     2    1    5 1
     3    1   11 2
     4    2    3 1
     5    2   30 1
     6    3    4 1
     7    3   31 1
     8    3   32 1
     9    4    5 1
    10    4   33 1
    11    4   34 1
    12    5    6 1
    13    5   10 1
    14    6    7 1
    15    6   35 1
    16    6   36 1
    17    7    8 1
    18    7   37 1
    19    7   38 1
    20    8    9 1
    21    8   14 1
    22    9   10 1
    23    9   39 1
    24    9   40 1
    25   10   41 1
    26   10   42 1
    27   12   13 1
    28   12   17 2
    29   12   18 1
    30   13   14 2
    31   13   19 1
    32   14   15 1
    33   15   16 2
    34   15   28 1
    35   16   17 1
    36   16   43 1
    37   18   20 1
    38   18   44 1
    39   19   20 2
    40   19   45 1
    41   20   46 1
    42   21   22 1
    43   21   25 1
    44   22   23 2
    45   22   47 1
    46   23   24 1
    47   24   25 1
    48   24   29 2
    49   25   26 2
    50   26   27 1
    51   26   48 1
    52   27   28 2
    53   27   49 1
    54   28   29 1
    55   29   50 1
@<TRIPOS>SUBSTRUCTURE
     1    LIG55    1   GROUP 1   LIG 1
@<TRIPOS>MOLECULE
692693
   39    42    1     0     0
SMALL
USER_CHARGES


@<TRIPOS>ATOM
      1 C1         -3.1580    1.2070   -0.6840 C.2       1    LIG56    0.0000
      2 C2         -1.9440    1.4410   -1.3700 C.2       1    LIG56    0.0000
      3 O1         -3.6090    2.0630    0.2930 O.3       1    LIG56    0.0000
      4 C3         -2.8480    3.2010    0.7730 C.3       1    LIG56    0.0000
      5 C4         -1.6110    3.4320    0.0000 C.2       1    LIG56    0.0000
      6 C5         -1.2010    2.5760   -1.0110 C.2       1    LIG56    0.0000
      7 C6         -0.6610    4.4390    0.0970 C.2       1    LIG56    0.0000
      8 C7          0.3130    4.1660   -0.8630 C.2       1    LIG56    0.0000
      9 N1         -0.0430    3.0390   -1.5080 N.pl3     1    LIG56    0.0000
     10 C8          1.4680    4.9100   -1.1350 C.2       1    LIG56    0.0000
     11 O2          2.2520    4.5350   -2.0340 O.2       1    LIG56    0.0000
     12 N2          1.7690    6.0270   -0.4570 N.am      1    LIG56    0.0000
     13 C9         -1.5200    0.5510   -2.3760 C.2       1    LIG56    0.0000
     14 C10        -2.3210   -0.5620   -2.6770 C.2       1    LIG56    0.0000
     15 N3         -3.4800   -0.7620   -2.0000 N.2       1    LIG56    0.0000
     16 C11        -3.9170    0.0770   -1.0270 C.2       1    LIG56    0.0000
     17 C12        -2.5540    3.0150    2.2800 C.3       1    LIG56    0.0000
     18 C13        -3.8750    2.9730    3.0710 C.3       1    LIG56    0.0000
     19 C14        -3.5870    2.7680    4.5650 C.3       1    LIG56    0.0000
     20 O3         -2.8040    1.5900    4.7470 O.3       1    LIG56    0.0000
     21 C15        -1.5460    1.5610    4.0750 C.3       1    LIG56    0.0000
     22 C16        -1.7590    1.7240    2.5630 C.3       1    LIG56    0.0000
     23 H1         -3.4760    4.0860    0.6570 H         1    LIG56    0.0000
     24 H2         -0.6740    5.2220    0.7510 H         1    LIG56    0.0000
     25 H3          0.4640    2.6270   -2.2260 H         1    LIG56    0.0000
     26 H4          2.5770    6.5160   -0.6740 H         1    LIG56    0.0000
     27 H5          1.1820    6.3440    0.2460 H         1    LIG56    0.0000
     28 H6         -0.6470    0.7040   -2.8830 H         1    LIG56    0.0000
     29 H7         -2.0330   -1.2190   -3.4020 H         1    LIG56    0.0000
     30 H8         -4.7970   -0.1140   -0.5470 H         1    LIG56    0.0000
     31 H9         -1.9750    3.8690    2.6380 H         1    LIG56    0.0000
     32 H10        -4.4920    2.1490    2.7110 H         1    LIG56    0.0000
     33 H11        -4.4160    3.9100    2.9330 H         1    LIG56    0.0000
     34 H12        -3.0490    3.6320    4.9570 H         1    LIG56    0.0000
     35 H13        -4.5290    2.6600    5.1030 H         1    LIG56    0.0000
     36 H14        -0.9130    2.3700    4.4450 H         1    LIG56    0.0000
     37 H15        -1.0560    0.6070    4.2710 H         1    LIG56    0.0000
     38 H16        -2.3140    0.8620    2.1890 H         1    LIG56    0.0000
     39 H17        -0.7880    1.7650    2.0690 H         1    LIG56    0.0000
@<TRIPOS>BOND
     1    1    2 1
     2    1    3 1
     3    1   16 2
     4    2    6 1
     5    2   13 2
     6    3    4 1
     7    4    5 1
     8    4   17 1
     9    4   23 1
    10    5    6 2
    11    5    7 1
    12    6    9 1
    13    7    8 2
    14    7   24 1
    15    8    9 1
    16    8   10 1
    17    9   25 1
    18   10   11 2
    19   10   12 1
    20   12   26 1
    21   12   27 1
    22   13   14 1
    23   13   28 1
    24   14   15 2
    25   14   29 1
    26   15   16 1
    27   16   30 1
    28   17   18 1
    29   17   22 1
    30   17   31 1
    31   18   19 1
    32   18   32 1
    33   18   33 1
    34   19   20 1
    35   19   34 1
    36   19   35 1
    37   20   21 1
    38   21   22 1
    39   21   36 1
    40   21   37 1
    41   22   38 1
    42   22   39 1
@<TRIPOS>SUBSTRUCTURE
     1    LIG56    1   GROUP 1   LIG 1
@<TRIPOS>MOLECULE
50778303
   33    36    1     0     0
SMALL
USER_CHARGES


@<TRIPOS>ATOM
      1 C1          5.7940   -6.7830    1.2490 C.3       1    LIG57    0.0000
      2 C2          6.4570   -5.5900    0.5010 C.3       1    LIG57    0.0000
      3 C3          6.6310   -7.0510   -1.5430 C.2       1    LIG57    0.0000
      4 C4          6.8460   -5.8280   -0.9110 C.2       1    LIG57    0.0000
      5 C5          7.4540   -4.9000   -1.7620 C.2       1    LIG57    0.0000
      6 S1          7.7620   -5.5350   -3.3470 S.3       1    LIG57    0.0000
      7 C6          7.0730   -7.0470   -2.8620 C.2       1    LIG57    0.0000
      8 S2          6.9570   -8.4080   -3.9300 S.3       1    LIG57    0.0000
      9 C7          7.6930   -7.8040   -5.4600 C.3       1    LIG57    0.0000
     10 C8          5.6290   -8.0130    0.4520 C.2       1    LIG57    0.0000
     11 C9          6.0320   -8.1240   -0.8710 C.2       1    LIG57    0.0000
     12 S3          5.7030   -9.6920   -1.5270 S.3       1    LIG57    0.0000
     13 N1          5.0470  -10.1560   -0.0440 N.2       1    LIG57    0.0000
     14 C10         5.0670   -9.2000    0.8970 C.2       1    LIG57    0.0000
     15 C11         7.8080   -3.5780   -1.4430 C.2       1    LIG57    0.0000
     16 O1          7.5870   -3.1180   -0.2990 O.2       1    LIG57    0.0000
     17 N2          8.3910   -2.8270   -2.4090 N.am      1    LIG57    0.0000
     18 C12         8.7930   -1.5430   -2.2740 C.2       1    LIG57    0.0000
     19 C13         9.3870   -0.8010   -3.2800 C.2       1    LIG57    0.0000
     20 C14         9.6370    0.4420   -2.7290 C.2       1    LIG57    0.0000
     21 O2          9.2050    0.4250   -1.4490 O.3       1    LIG57    0.0000
     22 N3          8.7060   -0.7550   -1.1860 N.2       1    LIG57    0.0000
     23 H1          4.8100   -6.4650    1.5960 H         1    LIG57    0.0000
     24 H2          6.4020   -7.0190    2.1240 H         1    LIG57    0.0000
     25 H3          7.3520   -5.3020    1.0560 H         1    LIG57    0.0000
     26 H4          5.7610   -4.7500    0.5250 H         1    LIG57    0.0000
     27 H5          7.6680   -8.5960   -6.2080 H         1    LIG57    0.0000
     28 H6          7.1280   -6.9460   -5.8260 H         1    LIG57    0.0000
     29 H7          8.7270   -7.5100   -5.2800 H         1    LIG57    0.0000
     30 H8          4.7060   -9.3350    1.8420 H         1    LIG57    0.0000
     31 H9          8.5320   -3.2460   -3.2720 H         1    LIG57    0.0000
     32 H10         9.5970   -1.1060   -4.2310 H         1    LIG57    0.0000
     33 H11        10.0720    1.2340   -3.2040 H         1    LIG57    0.0000
@<TRIPOS>BOND
     1    1    2 1
     2    1   10 1
     3    1   23 1
     4    1   24 1
     5    2    4 1
     6    2   25 1
     7    2   26 1
     8    3    4 1
     9    3    7 2
    10    3   11 1
    11    4    5 2
    12    5    6 1
    13    5   15 1
    14    6    7 1
    15    7    8 1
    16    8    9 1
    17    9   27 1
    18    9   28 1
    19    9   29 1
    20   10   11 2
    21   10   14 1
    22   11   12 1
    23   12   13 1
    24   13   14 2
    25   14   30 1
    26   15   16 2
    27   15   17 1
    28   17   18 1
    29   17   31 1
    30   18   19 1
    31   18   22 2
    32   19   20 2
    33   19   32 1
    34   20   21 1
    35   20   33 1
    36   21   22 1
@<TRIPOS>SUBSTRUCTURE
     1    LIG57    1   GROUP 1   LIG 1
@<TRIPOS>MOLECULE
50759948
   55    58    1     0     0
SMALL
USER_CHARGES


@<TRIPOS>ATOM
      1 C1          8.0410  -21.2670   -0.9690 C.2       1    LIG58    0.0000
      2 N1          8.9840  -21.2700    0.0080 N.am      1    LIG58    0.0000
      3 C2         10.0990  -20.4940    0.0640 C.2       1    LIG58    0.0000
      4 C3         10.1190  -19.1380   -0.3270 C.2       1    LIG58    0.0000
      5 C4         11.2990  -18.3830   -0.2210 C.2       1    LIG58    0.0000
      6 C5         12.4770  -18.9680    0.2850 C.2       1    LIG58    0.0000
      7 C6         13.7220  -18.1840    0.3960 C.3       1    LIG58    0.0000
      8 N2         14.8140  -18.7630   -0.4180 N.3       1    LIG58    0.0000
      9 C7         14.5740  -18.5600   -1.8650 C.3       1    LIG58    0.0000
     10 C8         15.7270  -19.1640   -2.6790 C.3       1    LIG58    0.0000
     11 O1         16.9620  -18.5970   -2.2490 O.3       1    LIG58    0.0000
     12 C9         17.2460  -18.7380   -0.8600 C.3       1    LIG58    0.0000
     13 C10        16.0970  -18.1340   -0.0390 C.3       1    LIG58    0.0000
     14 C11        12.4530  -20.3170    0.6900 C.2       1    LIG58    0.0000
     15 C12        11.2720  -21.0710    0.5840 C.2       1    LIG58    0.0000
     16 O2          8.1320  -20.5180   -1.9710 O.2       1    LIG58    0.0000
     17 C13         6.9520  -22.1450   -0.8340 C.2       1    LIG58    0.0000
     18 C14         5.9190  -22.2310   -1.7790 C.2       1    LIG58    0.0000
     19 C15         4.7860  -23.0990   -1.7350 C.2       1    LIG58    0.0000
     20 C16         3.7110  -23.0360   -2.6820 C.2       1    LIG58    0.0000
     21 C17         3.4770  -21.9670   -3.6160 C.2       1    LIG58    0.0000
     22 C18         3.9380  -20.6510   -3.6090 C.2       1    LIG58    0.0000
     23 N3          3.4320  -20.0010   -4.6680 N.pl3     1    LIG58    0.0000
     24 N4          2.6670  -20.7850   -5.3530 N.2       1    LIG58    0.0000
     25 C19         2.6570  -21.9820   -4.7470 C.2       1    LIG58    0.0000
     26 C20         2.7560  -24.0850   -2.6760 C.2       1    LIG58    0.0000
     27 C21         2.8100  -25.1020   -1.7170 C.2       1    LIG58    0.0000
     28 N5          3.7900  -25.0890   -0.7930 N.2       1    LIG58    0.0000
     29 C22         4.7510  -24.1390   -0.7720 C.2       1    LIG58    0.0000
     30 C23         3.6800  -18.6430   -4.9860 C.3       1    LIG58    0.0000
     31 H1          8.8710  -21.9190    0.7190 H         1    LIG58    0.0000
     32 H2          9.2740  -18.6930   -0.6840 H         1    LIG58    0.0000
     33 H3         11.2980  -17.4050   -0.5130 H         1    LIG58    0.0000
     34 H4         13.5570  -17.1470    0.0940 H         1    LIG58    0.0000
     35 H5         14.0180  -18.1820    1.4470 H         1    LIG58    0.0000
     36 H6         14.5000  -17.4940   -2.0880 H         1    LIG58    0.0000
     37 H7         13.6480  -19.0510   -2.1650 H         1    LIG58    0.0000
     38 H8         15.5780  -18.9500   -3.7380 H         1    LIG58    0.0000
     39 H9         15.7490  -20.2450   -2.5330 H         1    LIG58    0.0000
     40 H10        18.1750  -18.2180   -0.6250 H         1    LIG58    0.0000
     41 H11        17.3540  -19.7950   -0.6130 H         1    LIG58    0.0000
     42 H12        16.0560  -17.0580   -0.2190 H         1    LIG58    0.0000
     43 H13        16.2960  -18.3100    1.0190 H         1    LIG58    0.0000
     44 H14        13.2980  -20.7520    1.0620 H         1    LIG58    0.0000
     45 H15        11.2730  -22.0470    0.8850 H         1    LIG58    0.0000
     46 H16         6.9230  -22.7260    0.0020 H         1    LIG58    0.0000
     47 H17         6.0230  -21.6280   -2.5900 H         1    LIG58    0.0000
     48 H18         4.5210  -20.2150   -2.8970 H         1    LIG58    0.0000
     49 H19         2.1310  -22.7870   -5.0890 H         1    LIG58    0.0000
     50 H20         1.9780  -24.1030   -3.3360 H         1    LIG58    0.0000
     51 H21         2.1050  -25.8390   -1.7060 H         1    LIG58    0.0000
     52 H22         5.4730  -24.2290   -0.0590 H         1    LIG58    0.0000
     53 H23         3.1360  -18.3670   -5.8890 H         1    LIG58    0.0000
     54 H24         3.3520  -18.0050   -4.1640 H         1    LIG58    0.0000
     55 H25         4.7480  -18.4940   -5.1550 H         1    LIG58    0.0000
@<TRIPOS>BOND
     1    1    2 1
     2    1   16 2
     3    1   17 1
     4    2    3 1
     5    2   31 1
     6    3    4 2
     7    3   15 1
     8    4    5 1
     9    4   32 1
    10    5    6 2
    11    5   33 1
    12    6    7 1
    13    6   14 1
    14    7    8 1
    15    7   34 1
    16    7   35 1
    17    8    9 1
    18    8   13 1
    19    9   10 1
    20    9   36 1
    21    9   37 1
    22   10   11 1
    23   10   38 1
    24   10   39 1
    25   11   12 1
    26   12   13 1
    27   12   40 1
    28   12   41 1
    29   13   42 1
    30   13   43 1
    31   14   15 2
    32   14   44 1
    33   15   45 1
    34   17   18 2
    35   17   46 1
    36   18   19 1
    37   18   47 1
    38   19   20 2
    39   19   29 1
    40   20   21 1
    41   20   26 1
    42   21   22 2
    43   21   25 1
    44   22   23 1
    45   22   48 1
    46   23   24 1
    47   23   30 1
    48   24   25 2
    49   25   49 1
    50   26   27 2
    51   26   50 1
    52   27   28 1
    53   27   51 1
    54   28   29 2
    55   29   52 1
    56   30   53 1
    57   30   54 1
    58   30   55 1
@<TRIPOS>SUBSTRUCTURE
     1    LIG58    1   GROUP 1   LIG 1
@<TRIPOS>MOLECULE
51388393
  127   135    1     0     0
SMALL
USER_CHARGES


@<TRIPOS>ATOM
      1 C1          8.0300   -2.8060    0.3690 C.3       1    LIG59    0.0000
      2 C2          8.2150   -3.9850    1.3420 C.3       1    LIG59    0.0000
      3 C3          7.2210   -5.0580    1.1050 C.2       1    LIG59    0.0000
      4 C4          7.4220   -6.4390    1.0160 C.2       1    LIG59    0.0000
      5 N1          6.2660   -7.0370    0.6620 N.pl3     1    LIG59    0.0000
      6 N2          6.1430   -8.3180    0.4440 N.2       1    LIG59    0.0000
      7 C5          7.2170   -9.1310    0.5900 C.2       1    LIG59    0.0000
      8 N3          8.3880   -8.5890    1.0020 N.2       1    LIG59    0.0000
      9 C6          8.5390   -7.2610    1.2370 C.2       1    LIG59    0.0000
     10 N4          9.6910   -6.7690    1.7330 N.pl3     1    LIG59    0.0000
     11 C7         10.8250   -7.5540    2.0790 C.3       1    LIG59    0.0000
     12 C8         12.1000   -6.8740    1.5520 C.3       1    LIG59    0.0000
     13 C9         12.2970   -5.4910    2.1970 C.3       1    LIG59    0.0000
     14 C10        12.3480   -5.6030    3.7340 C.3       1    LIG59    0.0000
     15 C11        11.0760   -6.2990    4.2660 C.3       1    LIG59    0.0000
     16 C12        10.8980   -7.6770    3.6100 C.3       1    LIG59    0.0000
     17 N5         12.6010   -4.2760    4.3480 N.3       1    LIG59    0.0000
     18 C13        13.0060   -4.4040    5.7660 C.3       1    LIG59    0.0000
     19 C14        13.3790   -3.0300    6.3450 C.3       1    LIG59    0.0000
     20 N6         12.2760   -2.1390    6.1640 N.am      1    LIG59    0.0000
     21 C15        11.8810   -1.9590    4.8030 C.3       1    LIG59    0.0000
     22 C16        11.4750   -3.3230    4.2260 C.3       1    LIG59    0.0000
     23 C17        11.6520   -1.5380    7.2240 C.2       1    LIG59    0.0000
     24 O1         12.1050   -1.6980    8.3800 O.2       1    LIG59    0.0000
     25 C18        10.4550   -0.6880    7.0880 C.3       1    LIG59    0.0000
     26 C19         9.1830   -1.4690    6.6770 C.3       1    LIG59    0.0000
     27 C20         8.5940   -2.3230    7.7280 C.2       1    LIG59    0.0000
     28 O2          9.1260   -2.3280    8.8610 O.2       1    LIG59    0.0000
     29 N7          7.4870   -3.0940    7.4970 N.am      1    LIG59    0.0000
     30 C21         6.9130   -3.9110    8.5240 C.3       1    LIG59    0.0000
     31 C22         6.9030   -5.3830    8.0800 C.3       1    LIG59    0.0000
     32 C23         6.1840   -5.5330    6.7280 C.3       1    LIG59    0.0000
     33 C24         6.8420   -4.5910    5.7060 C.3       1    LIG59    0.0000
     34 C25         6.8230   -3.1480    6.2300 C.3       1    LIG59    0.0000
     35 C26         6.2490   -6.9980    6.2590 C.3       1    LIG59    0.0000
     36 C27         5.4820   -7.2120    4.9420 C.3       1    LIG59    0.0000
     37 N8          5.1980   -8.6430    4.7210 N.3       1    LIG59    0.0000
     38 C28         6.4300   -9.3960    4.4120 C.3       1    LIG59    0.0000
     39 C29         6.1100  -10.8820    4.1710 C.3       1    LIG59    0.0000
     40 N9          5.1330  -11.0110    3.1230 N.pl3     1    LIG59    0.0000
     41 C30         3.9270  -10.2880    3.4200 C.3       1    LIG59    0.0000
     42 C31         4.2460   -8.7980    3.6050 C.3       1    LIG59    0.0000
     43 C32         5.3300  -11.7520    1.9670 C.2       1    LIG59    0.0000
     44 C33         6.3820  -12.7040    1.8690 C.2       1    LIG59    0.0000
     45 C34         6.5670  -13.4290    0.6820 C.2       1    LIG59    0.0000
     46 C35         5.7390  -13.2390   -0.4110 C.2       1    LIG59    0.0000
     47 C36         4.6880  -12.3140   -0.3640 C.2       1    LIG59    0.0000
     48 C37         4.4960  -11.5830    0.8250 C.2       1    LIG59    0.0000
     49 C38         6.1760  -14.0970   -1.4110 C.2       1    LIG59    0.0000
     50 O3          5.6620  -14.2050   -2.5470 O.2       1    LIG59    0.0000
     51 N10         7.2380  -14.8050   -0.9470 N.am      1    LIG59    0.0000
     52 C39         7.4910  -14.4060    0.3300 C.2       1    LIG59    0.0000
     53 O4          8.4180  -14.8110    1.0640 O.2       1    LIG59    0.0000
     54 C40         7.9420  -15.8020   -1.7030 C.3       1    LIG59    0.0000
     55 C41         9.3890  -15.5230   -1.7960 C.2       1    LIG59    0.0000
     56 O5          9.7810  -14.5580   -2.4880 O.2       1    LIG59    0.0000
     57 N11        10.3140  -16.2590   -1.1460 N.am      1    LIG59    0.0000
     58 C42        10.0050  -17.2770   -0.3170 C.2       1    LIG59    0.0000
     59 O6         10.9360  -17.8670    0.2720 O.2       1    LIG59    0.0000
     60 C43         8.6160  -17.6730   -0.0460 C.3       1    LIG59    0.0000
     61 C44         7.6730  -17.2310   -1.1800 C.3       1    LIG59    0.0000
     62 C45         5.3000   -6.1110    0.5770 C.2       1    LIG59    0.0000
     63 C46         5.8620   -4.8720    0.8600 C.2       1    LIG59    0.0000
     64 C47         8.1530   -3.4720    2.7880 C.3       1    LIG59    0.0000
     65 H1          8.8430   -2.0930    0.5060 H         1    LIG59    0.0000
     66 H2          8.0470   -3.1640   -0.6620 H         1    LIG59    0.0000
     67 H3          7.0820   -2.2990    0.5590 H         1    LIG59    0.0000
     68 H4          9.2170   -4.3710    1.1650 H         1    LIG59    0.0000
     69 H5          7.1420  -10.1320    0.4120 H         1    LIG59    0.0000
     70 H6          9.7260   -5.8270    1.9470 H         1    LIG59    0.0000
     71 H7         10.7650   -8.5570    1.6520 H         1    LIG59    0.0000
     72 H8         12.0280   -6.7600    0.4700 H         1    LIG59    0.0000
     73 H9         12.9620   -7.5020    1.7820 H         1    LIG59    0.0000
     74 H10        13.2350   -5.0640    1.8400 H         1    LIG59    0.0000
     75 H11        11.4780   -4.8420    1.8910 H         1    LIG59    0.0000
     76 H12        13.1980   -6.2450    3.9720 H         1    LIG59    0.0000
     77 H13        11.1530   -6.4380    5.3440 H         1    LIG59    0.0000
     78 H14        10.1970   -5.6920    4.0510 H         1    LIG59    0.0000
     79 H15         9.9770   -8.1330    3.9790 H         1    LIG59    0.0000
     80 H16        11.7380   -8.3170    3.8820 H         1    LIG59    0.0000
     81 H17        13.8720   -5.0620    5.8430 H         1    LIG59    0.0000
     82 H18        12.1900   -4.8190    6.3590 H         1    LIG59    0.0000
     83 H19        13.6520   -3.1570    7.3940 H         1    LIG59    0.0000
     84 H20        14.2460   -2.6410    5.8080 H         1    LIG59    0.0000
     85 H21        11.0550   -1.2620    4.6800 H         1    LIG59    0.0000
     86 H22        12.7300   -1.5750    4.2350 H         1    LIG59    0.0000
     87 H23        11.2070   -3.1820    3.1800 H         1    LIG59    0.0000
     88 H24        10.6050   -3.6910    4.7720 H         1    LIG59    0.0000
     89 H25        10.2640   -0.1810    8.0360 H         1    LIG59    0.0000
     90 H26        10.6590    0.0810    6.3430 H         1    LIG59    0.0000
     91 H27         8.4290   -0.7380    6.3830 H         1    LIG59    0.0000
     92 H28         9.4040   -2.0960    5.8160 H         1    LIG59    0.0000
     93 H29         7.4560   -3.8430    9.4690 H         1    LIG59    0.0000
     94 H30         5.8860   -3.5880    8.7010 H         1    LIG59    0.0000
     95 H31         7.9310   -5.7350    7.9900 H         1    LIG59    0.0000
     96 H32         6.3880   -5.9800    8.8340 H         1    LIG59    0.0000
     97 H33         5.1380   -5.2470    6.8520 H         1    LIG59    0.0000
     98 H34         7.8750   -4.9030    5.5420 H         1    LIG59    0.0000
     99 H35         6.2980   -4.6310    4.7620 H         1    LIG59    0.0000
    100 H36         5.7860   -2.8320    6.3590 H         1    LIG59    0.0000
    101 H37         7.2770   -2.5050    5.4770 H         1    LIG59    0.0000
    102 H38         7.2920   -7.2880    6.1250 H         1    LIG59    0.0000
    103 H39         5.8030   -7.6290    7.0300 H         1    LIG59    0.0000
    104 H40         4.5360   -6.6710    5.0070 H         1    LIG59    0.0000
    105 H41         6.0590   -6.8100    4.1070 H         1    LIG59    0.0000
    106 H42         7.1250   -9.3310    5.2490 H         1    LIG59    0.0000
    107 H43         6.9090   -8.9830    3.5220 H         1    LIG59    0.0000
    108 H44         7.0580  -11.3690    3.9580 H         1    LIG59    0.0000
    109 H45         5.7060  -11.3100    5.0900 H         1    LIG59    0.0000
    110 H46         3.1460  -10.3880    2.6720 H         1    LIG59    0.0000
    111 H47         3.5190  -10.6690    4.3580 H         1    LIG59    0.0000
    112 H48         3.3200   -8.2690    3.8350 H         1    LIG59    0.0000
    113 H49         4.6670   -8.3970    2.6820 H         1    LIG59    0.0000
    114 H50         6.9990  -12.9000    2.6540 H         1    LIG59    0.0000
    115 H51         4.0820  -12.1680   -1.1720 H         1    LIG59    0.0000
    116 H52         3.7500  -10.8920    0.8250 H         1    LIG59    0.0000
    117 H53         7.5640  -15.7930   -2.7280 H         1    LIG59    0.0000
    118 H54        11.2470  -16.0260   -1.2590 H         1    LIG59    0.0000
    119 H55         8.2980  -17.2340    0.8980 H         1    LIG59    0.0000
    120 H56         8.5650  -18.7590    0.0420 H         1    LIG59    0.0000
    121 H57         6.6390  -17.3100   -0.8400 H         1    LIG59    0.0000
    122 H58         7.8070  -17.9250   -2.0120 H         1    LIG59    0.0000
    123 H59         4.3230   -6.2850    0.3360 H         1    LIG59    0.0000
    124 H60         5.3700   -3.9780    0.8500 H         1    LIG59    0.0000
    125 H61         8.4000   -4.2820    3.4720 H         1    LIG59    0.0000
    126 H62         8.8760   -2.6670    2.9230 H         1    LIG59    0.0000
    127 H63         7.1550   -3.0930    3.0150 H         1    LIG59    0.0000
@<TRIPOS>BOND
     1    1    2 1
     2    1   65 1
     3    1   66 1
     4    1   67 1
     5    2    3 1
     6    2   64 1
     7    2   68 1
     8    3    4 2
     9    3   63 1
    10    4    5 1
    11    4    9 1
    12    5    6 1
    13    5   62 1
    14    6    7 2
    15    7    8 1
    16    7   69 1
    17    8    9 2
    18    9   10 1
    19   11   10 1
    20   10   70 1
    21   11   12 1
    22   11   16 1
    23   11   71 1
    24   12   13 1
    25   12   72 1
    26   12   73 1
    27   13   14 1
    28   13   74 1
    29   13   75 1
    30   14   15 1
    31   14   17 1
    32   14   76 1
    33   15   16 1
    34   15   77 1
    35   15   78 1
    36   16   79 1
    37   16   80 1
    38   17   18 1
    39   17   22 1
    40   18   19 1
    41   18   81 1
    42   18   82 1
    43   19   20 1
    44   19   83 1
    45   19   84 1
    46   20   21 1
    47   20   23 1
    48   21   22 1
    49   21   85 1
    50   21   86 1
    51   22   87 1
    52   22   88 1
    53   23   24 2
    54   23   25 1
    55   25   26 1
    56   25   89 1
    57   25   90 1
    58   26   27 1
    59   26   91 1
    60   26   92 1
    61   27   28 2
    62   27   29 1
    63   29   30 1
    64   29   34 1
    65   30   31 1
    66   30   93 1
    67   30   94 1
    68   31   32 1
    69   31   95 1
    70   31   96 1
    71   32   33 1
    72   32   35 1
    73   32   97 1
    74   33   34 1
    75   33   98 1
    76   33   99 1
    77   34  100 1
    78   34  101 1
    79   35   36 1
    80   35  102 1
    81   35  103 1
    82   36   37 1
    83   36  104 1
    84   36  105 1
    85   37   38 1
    86   37   42 1
    87   38   39 1
    88   38  106 1
    89   38  107 1
    90   39   40 1
    91   39  108 1
    92   39  109 1
    93   40   41 1
    94   40   43 1
    95   41   42 1
    96   41  110 1
    97   41  111 1
    98   42  112 1
    99   42  113 1
   100   43   44 2
   101   43   48 1
   102   44   45 1
   103   44  114 1
   104   45   46 2
   105   45   52 1
   106   46   47 1
   107   46   49 1
   108   47   48 2
   109   47  115 1
   110   48  116 1
   111   49   50 2
   112   49   51 1
   113   51   52 1
   114   51   54 1
   115   52   53 2
   116   54   55 1
   117   54   61 1
   118   54  117 1
   119   55   56 2
   120   55   57 1
   121   57   58 1
   122   57  118 1
   123   58   59 2
   124   58   60 1
   125   60   61 1
   126   60  119 1
   127   60  120 1
   128   61  121 1
   129   61  122 1
   130   62   63 2
   131   62  123 1
   132   63  124 1
   133   64  125 1
   134   64  126 1
   135   64  127 1
@<TRIPOS>SUBSTRUCTURE
     1    LIG59    1   GROUP 1   LIG 1
@<TRIPOS>MOLECULE
692690
   51    54    1     0     0
SMALL
USER_CHARGES


@<TRIPOS>ATOM
      1 C1         -1.9200    2.5150   -0.6270 C.2       1    LIG60    0.0000
      2 C2         -2.3620    1.3860    0.1060 C.2       1    LIG60    0.0000
      3 O1         -1.3700    2.3770   -1.8680 O.3       1    LIG60    0.0000
      4 C3         -0.7620    1.1450   -2.2970 C.3       1    LIG60    0.0000
      5 C4         -1.4050   -0.0310   -1.6440 C.2       1    LIG60    0.0000
      6 C5         -2.1830    0.0990   -0.4930 C.2       1    LIG60    0.0000
      7 C6         -1.3110   -1.3880   -1.9420 C.2       1    LIG60    0.0000
      8 C7         -2.0700   -2.0720   -0.9820 C.2       1    LIG60    0.0000
      9 N1         -2.6160   -1.1450   -0.1440 N.pl3     1    LIG60    0.0000
     10 C8         -2.2280   -3.4850   -0.9000 C.2       1    LIG60    0.0000
     11 O2         -2.8910   -4.0230    0.0110 O.2       1    LIG60    0.0000
     12 N2         -1.6770   -4.3550   -1.7610 N.am      1    LIG60    0.0000
     13 C9         -0.5710   -1.9440   -3.0050 C.2       1    LIG60    0.0000
     14 C10        -2.9160    1.6160    1.3860 C.2       1    LIG60    0.0000
     15 C11        -3.0510    2.9250    1.8740 C.2       1    LIG60    0.0000
     16 N3         -2.6380    3.9720    1.1210 N.2       1    LIG60    0.0000
     17 C12        -2.0830    3.8070   -0.1030 C.2       1    LIG60    0.0000
     18 C13        -0.9110    1.1510   -3.8310 C.3       1    LIG60    0.0000
     19 C14         0.7320    1.2270   -1.9310 C.3       1    LIG60    0.0000
     20 C15         0.7910   -2.2900   -2.8410 C.2       1    LIG60    0.0000
     21 C16         1.4900   -2.8640   -3.9260 C.2       1    LIG60    0.0000
     22 C17         0.8430   -3.1000   -5.1500 C.2       1    LIG60    0.0000
     23 C18        -0.5110   -2.7650   -5.3040 C.2       1    LIG60    0.0000
     24 C19        -1.2180   -2.1920   -4.2350 C.2       1    LIG60    0.0000
     25 O3          1.3790   -2.0570   -1.6260 O.3       1    LIG60    0.0000
     26 C20         2.7610   -2.3120   -1.3670 C.3       1    LIG60    0.0000
     27 C21        -3.5690   -1.4460    0.8850 C.3       1    LIG60    0.0000
     28 C22        -2.8690   -1.8240    2.2010 C.3       1    LIG60    0.0000
     29 H1         -1.8240   -5.3050   -1.6330 H         1    LIG60    0.0000
     30 H2         -1.1350   -4.0490   -2.5010 H         1    LIG60    0.0000
     31 H3         -3.2020    0.8540    1.9920 H         1    LIG60    0.0000
     32 H4         -3.4530    3.0890    2.7970 H         1    LIG60    0.0000
     33 H5         -1.7810    4.6210   -0.6400 H         1    LIG60    0.0000
     34 H6         -0.2630    0.4030   -4.2860 H         1    LIG60    0.0000
     35 H7         -1.9480    0.9550   -4.1090 H         1    LIG60    0.0000
     36 H8         -0.6240    2.1290   -4.2170 H         1    LIG60    0.0000
     37 H9          1.2810    0.3940   -2.3670 H         1    LIG60    0.0000
     38 H10         1.1480    2.1580   -2.3180 H         1    LIG60    0.0000
     39 H11         0.8560    1.2120   -0.8470 H         1    LIG60    0.0000
     40 H12         2.4720   -3.1180   -3.8280 H         1    LIG60    0.0000
     41 H13         1.3570   -3.5160   -5.9270 H         1    LIG60    0.0000
     42 H14        -0.9820   -2.9380   -6.1930 H         1    LIG60    0.0000
     43 H15        -2.2040   -1.9540   -4.3600 H         1    LIG60    0.0000
     44 H16         2.9830   -2.0310   -0.3370 H         1    LIG60    0.0000
     45 H17         2.9810   -3.3730   -1.4970 H         1    LIG60    0.0000
     46 H18         3.3870   -1.7210   -2.0370 H         1    LIG60    0.0000
     47 H19        -4.2450   -0.6100    1.0470 H         1    LIG60    0.0000
     48 H20        -4.2180   -2.2660    0.5810 H         1    LIG60    0.0000
     49 H21        -3.6170   -1.9620    2.9810 H         1    LIG60    0.0000
     50 H22        -2.3120   -2.7510    2.0730 H         1    LIG60    0.0000
     51 H23        -2.1770   -1.0370    2.5010 H         1    LIG60    0.0000
@<TRIPOS>BOND
     1    1    2 1
     2    1    3 1
     3    1   17 2
     4    2    6 1
     5    2   14 2
     6    3    4 1
     7    4    5 1
     8    4   18 1
     9    4   19 1
    10    5    6 2
    11    5    7 1
    12    6    9 1
    13    7    8 2
    14    7   13 1
    15    8    9 1
    16    8   10 1
    17    9   27 1
    18   10   11 2
    19   10   12 1
    20   12   29 1
    21   12   30 1
    22   13   20 2
    23   13   24 1
    24   14   15 1
    25   14   31 1
    26   15   16 2
    27   15   32 1
    28   16   17 1
    29   17   33 1
    30   18   34 1
    31   18   35 1
    32   18   36 1
    33   19   37 1
    34   19   38 1
    35   19   39 1
    36   20   21 1
    37   20   25 1
    38   21   22 2
    39   21   40 1
    40   22   23 1
    41   22   41 1
    42   23   24 2
    43   23   42 1
    44   24   43 1
    45   25   26 1
    46   26   44 1
    47   26   45 1
    48   26   46 1
    49   27   28 1
    50   27   47 1
    51   27   48 1
    52   28   49 1
    53   28   50 1
    54   28   51 1
@<TRIPOS>SUBSTRUCTURE
     1    LIG60    1   GROUP 1   LIG 1
@<TRIPOS>MOLECULE
692597
   31    33    1     0     0
SMALL
USER_CHARGES


@<TRIPOS>ATOM
      1 C1         -1.4270    0.6780    1.2120 C.2       1    LIG61    0.0000
      2 C2         -0.2620    0.1140    0.6680 C.2       1    LIG61    0.0000
      3 C3          0.9700    0.7700    0.8750 C.2       1    LIG61    0.0000
      4 C4          1.0140    1.9670    1.6170 C.2       1    LIG61    0.0000
      5 C5         -0.1820    2.4850    2.1380 C.2       1    LIG61    0.0000
      6 N1         -1.3510    1.8320    1.9210 N.2       1    LIG61    0.0000
      7 O1         -0.3390   -1.0530   -0.0500 O.3       1    LIG61    0.0000
      8 C6          0.8030   -1.7170   -0.6430 C.3       1    LIG61    0.0000
      9 C7          2.0850   -0.9950   -0.4080 C.2       1    LIG61    0.0000
     10 C8          2.1180    0.1860    0.3210 C.2       1    LIG61    0.0000
     11 C9          3.3980   -1.2700   -0.7960 C.2       1    LIG61    0.0000
     12 C10         4.1930   -0.2340   -0.2850 C.2       1    LIG61    0.0000
     13 N2          3.3860    0.6150    0.3760 N.pl3     1    LIG61    0.0000
     14 C11         5.5800   -0.0160   -0.3810 C.2       1    LIG61    0.0000
     15 N3          6.4230   -0.8320   -1.0300 N.am      1    LIG61    0.0000
     16 O2          6.0760    0.9930    0.1640 O.2       1    LIG61    0.0000
     17 C12         0.8360   -3.1270   -0.0210 C.3       1    LIG61    0.0000
     18 C13         0.4880   -1.8220   -2.1470 C.3       1    LIG61    0.0000
     19 Cl1         3.9060   -2.6060   -1.7070 Cl        1    LIG61    0.0000
     20 H1         -2.3300    0.2230    1.0750 H         1    LIG61    0.0000
     21 H2          1.8950    2.4570    1.7780 H         1    LIG61    0.0000
     22 H3         -0.1730    3.3510    2.6790 H         1    LIG61    0.0000
     23 H4          3.6840    1.4200    0.8260 H         1    LIG61    0.0000
     24 H5          7.3680   -0.6190   -1.0530 H         1    LIG61    0.0000
     25 H6          6.0970   -1.6290   -1.4720 H         1    LIG61    0.0000
     26 H7          1.5840   -3.7500   -0.5090 H         1    LIG61    0.0000
     27 H8          1.0640   -3.0590    1.0430 H         1    LIG61    0.0000
     28 H9         -0.1410   -3.5970   -0.1410 H         1    LIG61    0.0000
     29 H10         1.2280   -2.4380   -2.6570 H         1    LIG61    0.0000
     30 H11        -0.4940   -2.2770   -2.2790 H         1    LIG61    0.0000
     31 H12         0.4770   -0.8280   -2.5950 H         1    LIG61    0.0000
@<TRIPOS>BOND
     1    1    2 2
     2    1    6 1
     3    1   20 1
     4    2    3 1
     5    2    7 1
     6    3    4 2
     7    3   10 1
     8    4    5 1
     9    4   21 1
    10    5    6 2
    11    5   22 1
    12    7    8 1
    13    8    9 1
    14    8   17 1
    15    8   18 1
    16    9   10 2
    17    9   11 1
    18   10   13 1
    19   11   12 2
    20   11   19 1
    21   12   13 1
    22   12   14 1
    23   13   23 1
    24   14   15 1
    25   14   16 2
    26   15   24 1
    27   15   25 1
    28   17   26 1
    29   17   27 1
    30   17   28 1
    31   18   29 1
    32   18   30 1
    33   18   31 1
@<TRIPOS>SUBSTRUCTURE
     1    LIG61    1   GROUP 1   LIG 1
@<TRIPOS>MOLECULE
692695
   50    53    1     0     0
SMALL
USER_CHARGES


@<TRIPOS>ATOM
      1 C1         -1.5490   -1.1410    2.5770 C.2       1    LIG62    0.0000
      2 C2         -0.3020   -0.8700    1.9930 C.2       1    LIG62    0.0000
      3 C3          0.0770    0.4650    1.7040 C.2       1    LIG62    0.0000
      4 C4         -0.8220    1.4920    2.0710 C.2       1    LIG62    0.0000
      5 C5         -2.0550    1.1750    2.6620 C.2       1    LIG62    0.0000
      6 N1         -2.3800   -0.1190    2.8920 N.2       1    LIG62    0.0000
      7 O1          0.5130   -1.9170    1.6740 O.3       1    LIG62    0.0000
      8 C6          1.9320   -1.7510    1.5010 C.3       1    LIG62    0.0000
      9 C7          2.2630   -0.3840    1.0070 C.2       1    LIG62    0.0000
     10 C8          1.3540    0.6720    1.0930 C.2       1    LIG62    0.0000
     11 C9          3.4490    0.1200    0.4770 C.2       1    LIG62    0.0000
     12 C10         3.2320    1.4800    0.2080 C.2       1    LIG62    0.0000
     13 N2          1.9460    1.7740    0.5550 N.pl3     1    LIG62    0.0000
     14 C11         2.5840   -2.0160    2.8720 C.3       1    LIG62    0.0000
     15 C12         1.3060    3.0320    0.2970 C.3       1    LIG62    0.0000
     16 C13         1.5620    4.0330    1.4350 C.3       1    LIG62    0.0000
     17 C14         4.1920    2.3830   -0.3310 C.2       1    LIG62    0.0000
     18 O2          3.9310    3.5910   -0.5140 O.2       1    LIG62    0.0000
     19 N3          5.4440    2.0380   -0.6680 N.am      1    LIG62    0.0000
     20 C15         4.9860   -1.2300   -0.9630 C.2       1    LIG62    0.0000
     21 C16         6.2280   -1.9060   -1.0370 C.2       1    LIG62    0.0000
     22 C17         7.0990   -1.9740    0.0600 C.2       1    LIG62    0.0000
     23 C18         6.7480   -1.3580    1.2660 C.2       1    LIG62    0.0000
     24 C19         5.5260   -0.6780    1.3710 C.2       1    LIG62    0.0000
     25 C20         4.6370   -0.6130    0.2760 C.2       1    LIG62    0.0000
     26 C21         2.3340   -2.8700    0.5210 C.3       1    LIG62    0.0000
     27 C22         4.1580   -1.2270   -2.2100 C.3       1    LIG62    0.0000
     28 F1          2.9370   -0.6040   -2.1420 F         1    LIG62    0.0000
     29 F2          4.8460   -0.6010   -3.2220 F         1    LIG62    0.0000
     30 F3          3.8940   -2.5180   -2.6030 F         1    LIG62    0.0000
     31 H1         -1.8280   -2.1040    2.7680 H         1    LIG62    0.0000
     32 H2         -0.5940    2.4730    1.9490 H         1    LIG62    0.0000
     33 H3         -2.7030    1.9170    2.9250 H         1    LIG62    0.0000
     34 H4          3.6680   -2.0580    2.7810 H         1    LIG62    0.0000
     35 H5          2.3120   -1.2300    3.5770 H         1    LIG62    0.0000
     36 H6          2.2310   -2.9720    3.2610 H         1    LIG62    0.0000
     37 H7          1.6620    3.4610   -0.6390 H         1    LIG62    0.0000
     38 H8          0.2370    2.9030    0.1460 H         1    LIG62    0.0000
     39 H9          0.9980    4.9460    1.2470 H         1    LIG62    0.0000
     40 H10         1.2520    3.6080    2.3890 H         1    LIG62    0.0000
     41 H11         2.6240    4.2750    1.4870 H         1    LIG62    0.0000
     42 H12         6.0400    2.7140   -1.0260 H         1    LIG62    0.0000
     43 H13         5.7600    1.1310   -0.5570 H         1    LIG62    0.0000
     44 H14         6.5060   -2.3580   -1.9100 H         1    LIG62    0.0000
     45 H15         7.9880   -2.4690   -0.0220 H         1    LIG62    0.0000
     46 H16         7.3790   -1.4010    2.0670 H         1    LIG62    0.0000
     47 H17         5.2910   -0.2280    2.2580 H         1    LIG62    0.0000
     48 H18         3.4160   -2.9950    0.4970 H         1    LIG62    0.0000
     49 H19         1.8900   -3.8110    0.8470 H         1    LIG62    0.0000
     50 H20         1.9700   -2.6400   -0.4810 H         1    LIG62    0.0000
@<TRIPOS>BOND
     1    1    2 2
     2    1    6 1
     3    1   31 1
     4    2    3 1
     5    2    7 1
     6    3    4 2
     7    3   10 1
     8    4    5 1
     9    4   32 1
    10    5    6 2
    11    5   33 1
    12    7    8 1
    13    8    9 1
    14    8   14 1
    15    8   26 1
    16    9   10 2
    17    9   11 1
    18   10   13 1
    19   11   12 2
    20   11   25 1
    21   12   13 1
    22   12   17 1
    23   13   15 1
    24   14   34 1
    25   14   35 1
    26   14   36 1
    27   15   16 1
    28   15   37 1
    29   15   38 1
    30   16   39 1
    31   16   40 1
    32   16   41 1
    33   17   18 2
    34   17   19 1
    35   19   42 1
    36   19   43 1
    37   20   21 2
    38   20   25 1
    39   20   27 1
    40   21   22 1
    41   21   44 1
    42   22   23 2
    43   22   45 1
    44   23   24 1
    45   23   46 1
    46   24   25 2
    47   24   47 1
    48   26   48 1
    49   26   49 1
    50   26   50 1
    51   27   28 1
    52   27   29 1
    53   27   30 1
@<TRIPOS>SUBSTRUCTURE
     1    LIG62    1   GROUP 1   LIG 1
@<TRIPOS>MOLECULE
51419715
   51    56    1     0     0
SMALL
USER_CHARGES


@<TRIPOS>ATOM
      1 C1         15.2140  -13.0550    1.1450 C.2       1    LIG63    0.0000
      2 N1         15.6360  -13.7160    0.0700 N.am      1    LIG63    0.0000
      3 C2         14.9970  -13.3290   -1.1220 C.3       1    LIG63    0.0000
      4 C3         14.0060  -12.2350   -0.6890 C.3       1    LIG63    0.0000
      5 C4         14.1700  -12.0660    0.8410 C.3       1    LIG63    0.0000
      6 C5         12.8390  -12.3780    1.5600 C.3       1    LIG63    0.0000
      7 C6         12.8830  -11.9950    3.0500 C.3       1    LIG63    0.0000
      8 N2         13.3440  -10.6520    3.2580 N.2       1    LIG63    0.0000
      9 C7         14.6270  -10.3590    2.6950 C.3       1    LIG63    0.0000
     10 C8         14.6090  -10.6240    1.1790 C.3       1    LIG63    0.0000
     11 O1         15.6740  -13.2810    2.2850 O.2       1    LIG63    0.0000
     12 C9         12.7160   -8.2460    6.0020 C.2       1    LIG63    0.0000
     13 C10        13.3860   -9.0650    5.0950 C.2       1    LIG63    0.0000
     14 C11        12.6810   -9.7720    4.0920 C.2       1    LIG63    0.0000
     15 C12        11.2680   -9.5670    4.0400 C.2       1    LIG63    0.0000
     16 C13        10.6490   -8.7290    5.0020 C.2       1    LIG63    0.0000
     17 N3         11.3770   -8.0920    5.9530 N.2       1    LIG63    0.0000
     18 N4         13.5920   -7.7210    6.8700 N.pl3     1    LIG63    0.0000
     19 C14        14.7230   -9.0380    5.4830 C.2       1    LIG63    0.0000
     20 C15        14.8170   -8.1850    6.5790 C.2       1    LIG63    0.0000
     21 C16         8.9270  -10.5240   -1.2400 C.2       1    LIG63    0.0000
     22 N5          8.2450  -11.1890   -0.2910 N.pl3     1    LIG63    0.0000
     23 C17         8.8300  -10.9230    0.8790 C.2       1    LIG63    0.0000
     24 C18         9.8960  -10.0720    0.6190 C.2       1    LIG63    0.0000
     25 N6          9.9500   -9.8300   -0.7000 N.2       1    LIG63    0.0000
     26 C19        10.7220   -9.6130    1.6550 C.2       1    LIG63    0.0000
     27 C20        10.4570  -10.0380    2.9800 C.2       1    LIG63    0.0000
     28 C21         9.3530  -10.8940    3.2330 C.2       1    LIG63    0.0000
     29 C22         8.5330  -11.3500    2.1810 C.2       1    LIG63    0.0000
     30 H1         16.3220  -14.4000    0.1100 H         1    LIG63    0.0000
     31 H2         15.7250  -12.9320   -1.8300 H         1    LIG63    0.0000
     32 H3         14.4680  -14.1770   -1.5600 H         1    LIG63    0.0000
     33 H4         14.2370  -11.3060   -1.2130 H         1    LIG63    0.0000
     34 H5         12.9900  -12.5420   -0.9440 H         1    LIG63    0.0000
     35 H6         12.6040  -13.4400    1.4710 H         1    LIG63    0.0000
     36 H7         12.0440  -11.8180    1.0760 H         1    LIG63    0.0000
     37 H8         11.9040  -12.1770    3.4920 H         1    LIG63    0.0000
     38 H9         13.5830  -12.6660    3.5490 H         1    LIG63    0.0000
     39 H10        14.9000   -9.3110    2.8300 H         1    LIG63    0.0000
     40 H11        15.3870  -10.9830    3.1670 H         1    LIG63    0.0000
     41 H12        15.6010  -10.4280    0.7680 H         1    LIG63    0.0000
     42 H13        13.9040   -9.9270    0.7230 H         1    LIG63    0.0000
     43 H14         9.6410   -8.5660    4.9740 H         1    LIG63    0.0000
     44 H15        13.3710   -7.1210    7.5990 H         1    LIG63    0.0000
     45 H16        15.4950   -9.5530    5.0610 H         1    LIG63    0.0000
     46 H17        15.6740   -7.9630    7.0880 H         1    LIG63    0.0000
     47 H18         8.7020  -10.5420   -2.2350 H         1    LIG63    0.0000
     48 H19         7.4710  -11.7570   -0.4320 H         1    LIG63    0.0000
     49 H20        11.5030   -8.9890    1.4460 H         1    LIG63    0.0000
     50 H21         9.1470  -11.1970    4.1860 H         1    LIG63    0.0000
     51 H22         7.7450  -11.9720    2.3630 H         1    LIG63    0.0000
@<TRIPOS>BOND
     1    1    2 1
     2    1    5 1
     3    1   11 2
     4    2    3 1
     5    2   30 1
     6    3    4 1
     7    3   31 1
     8    3   32 1
     9    4    5 1
    10    4   33 1
    11    4   34 1
    12    5    6 1
    13    5   10 1
    14    6    7 1
    15    6   35 1
    16    6   36 1
    17    7    8 1
    18    7   37 1
    19    7   38 1
    20    8    9 1
    21    8   14 1
    22    9   10 1
    23    9   39 1
    24    9   40 1
    25   10   41 1
    26   10   42 1
    27   12   13 1
    28   12   17 2
    29   12   18 1
    30   13   14 2
    31   13   19 1
    32   14   15 1
    33   15   16 2
    34   15   27 1
    35   16   17 1
    36   16   43 1
    37   18   20 1
    38   18   44 1
    39   19   20 2
    40   19   45 1
    41   20   46 1
    42   21   22 1
    43   21   25 2
    44   21   47 1
    45   22   23 1
    46   22   48 1
    47   23   24 1
    48   23   29 2
    49   24   25 1
    50   24   26 2
    51   26   27 1
    52   26   49 1
    53   27   28 2
    54   28   29 1
    55   28   50 1
    56   29   51 1
@<TRIPOS>SUBSTRUCTURE
     1    LIG63    1   GROUP 1   LIG 1
@<TRIPOS>MOLECULE
50778194
   31    33    1     0     0
SMALL
USER_CHARGES


@<TRIPOS>ATOM
      1 C1          9.8920   -6.4500    1.1450 C.3       1    LIG64    0.0000
      2 C2         10.4600   -5.1560    0.5120 C.3       1    LIG64    0.0000
      3 C3         10.9530   -6.4470   -1.6240 C.2       1    LIG64    0.0000
      4 C4         10.9660   -5.2570   -0.8800 C.2       1    LIG64    0.0000
      5 C5         11.5050   -4.1740   -1.5790 C.2       1    LIG64    0.0000
      6 S1         12.0080   -4.5900   -3.1780 S.3       1    LIG64    0.0000
      7 C6         11.4960   -6.2200   -2.8970 C.2       1    LIG64    0.0000
      8 S2         11.7060   -7.3630   -4.1810 S.3       1    LIG64    0.0000
      9 C7         12.4380   -6.4220   -5.5320 C.3       1    LIG64    0.0000
     10 C8         11.6600   -2.8590   -1.1110 C.2       1    LIG64    0.0000
     11 O1         11.3150   -2.5060    0.0380 O.2       1    LIG64    0.0000
     12 N1         12.1980   -1.9260   -1.9070 N.am      1    LIG64    0.0000
     13 C9          9.9380   -7.6210    0.2620 C.2       1    LIG64    0.0000
     14 C10        10.4320   -7.6380   -1.0390 C.2       1    LIG64    0.0000
     15 N2         10.2700   -8.9220   -1.4560 N.pl3     1    LIG64    0.0000
     16 N3          9.7310   -9.6540   -0.5270 N.2       1    LIG64    0.0000
     17 C11         9.5070   -8.9000    0.5540 C.2       1    LIG64    0.0000
     18 C12        10.5960   -9.5190   -2.6970 C.3       1    LIG64    0.0000
     19 H1          8.8540   -6.2720    1.4300 H         1    LIG64    0.0000
     20 H2         10.4610   -6.6750    2.0480 H         1    LIG64    0.0000
     21 H3         11.2760   -4.8080    1.1470 H         1    LIG64    0.0000
     22 H4          9.6700   -4.4030    0.5350 H         1    LIG64    0.0000
     23 H5         12.6010   -7.0830   -6.3840 H         1    LIG64    0.0000
     24 H6         11.7640   -5.6170   -5.8260 H         1    LIG64    0.0000
     25 H7         13.3930   -6.0030   -5.2140 H         1    LIG64    0.0000
     26 H8         12.3030   -1.0200   -1.5800 H         1    LIG64    0.0000
     27 H9         12.4790   -2.1550   -2.8060 H         1    LIG64    0.0000
     28 H10         9.0930   -9.2130    1.4330 H         1    LIG64    0.0000
     29 H11        10.3280  -10.5770   -2.6850 H         1    LIG64    0.0000
     30 H12        10.0350   -9.0380   -3.4980 H         1    LIG64    0.0000
     31 H13        11.6700   -9.4460   -2.8710 H         1    LIG64    0.0000
@<TRIPOS>BOND
     1    1    2 1
     2    1   13 1
     3    1   19 1
     4    1   20 1
     5    2    4 1
     6    2   21 1
     7    2   22 1
     8    3    4 1
     9    3    7 2
    10    3   14 1
    11    4    5 2
    12    5    6 1
    13    5   10 1
    14    6    7 1
    15    7    8 1
    16    8    9 1
    17    9   23 1
    18    9   24 1
    19    9   25 1
    20   10   11 2
    21   10   12 1
    22   12   26 1
    23   12   27 1
    24   13   14 2
    25   13   17 1
    26   14   15 1
    27   15   16 1
    28   15   18 1
    29   16   17 2
    30   17   28 1
    31   18   29 1
    32   18   30 1
    33   18   31 1
@<TRIPOS>SUBSTRUCTURE
     1    LIG64    1   GROUP 1   LIG 1
@<TRIPOS>MOLECULE
692611
   37    39    1     0     0
SMALL
USER_CHARGES


@<TRIPOS>ATOM
      1 C1         -0.2120   -0.2460    0.8440 C.2       1    LIG65    0.0000
      2 C2         -0.5980    1.1200    0.8720 C.2       1    LIG65    0.0000
      3 O1          0.9990   -0.6690    1.3190 O.3       1    LIG65    0.0000
      4 C3          2.0850    0.2320    1.5970 C.3       1    LIG65    0.0000
      5 C4          1.6220    1.6300    1.7400 C.2       1    LIG65    0.0000
      6 C5          0.3440    2.0670    1.3960 C.2       1    LIG65    0.0000
      7 C6          2.3500    2.7190    2.1710 C.2       1    LIG65    0.0000
      8 C7          1.5080    3.8240    2.1220 C.2       1    LIG65    0.0000
      9 N1          0.2960    3.4120    1.6480 N.pl3     1    LIG65    0.0000
     10 C8          1.9300    5.1140    2.5240 C.2       1    LIG65    0.0000
     11 O2          1.1740    6.1070    2.4930 O.2       1    LIG65    0.0000
     12 N2          3.1770    5.3420    2.9670 N.am      1    LIG65    0.0000
     13 C9         -1.8810    1.4400    0.3700 C.2       1    LIG65    0.0000
     14 C10        -2.7270    0.4300   -0.1150 C.2       1    LIG65    0.0000
     15 N3         -2.3140   -0.8580   -0.1070 N.2       1    LIG65    0.0000
     16 C11        -1.0940   -1.2220    0.3530 C.2       1    LIG65    0.0000
     17 C12         2.7460   -0.2720    2.8950 C.3       1    LIG65    0.0000
     18 C13         3.0930    0.1250    0.4380 C.3       1    LIG65    0.0000
     19 C14        -0.8420    4.2770    1.4980 C.3       1    LIG65    0.0000
     20 C15        -0.9250    4.9450    0.1040 C.3       1    LIG65    0.0000
     21 F1         -2.1310    5.5880   -0.0150 F         1    LIG65    0.0000
     22 F2          0.0710    5.8730   -0.0650 F         1    LIG65    0.0000
     23 F3         -0.8180    4.0370   -0.9180 F         1    LIG65    0.0000
     24 H1          3.3230    2.7040    2.4780 H         1    LIG65    0.0000
     25 H2          3.4310    6.2380    3.2340 H         1    LIG65    0.0000
     26 H3          3.8190    4.6190    3.0200 H         1    LIG65    0.0000
     27 H4         -2.2190    2.3930    0.3220 H         1    LIG65    0.0000
     28 H5         -3.6510    0.6670   -0.4780 H         1    LIG65    0.0000
     29 H6         -0.8190   -2.2040    0.3440 H         1    LIG65    0.0000
     30 H7          3.6340    0.3180    3.1250 H         1    LIG65    0.0000
     31 H8          2.0400   -0.2000    3.7240 H         1    LIG65    0.0000
     32 H9          3.0380   -1.3150    2.7720 H         1    LIG65    0.0000
     33 H10         3.9700    0.7430    0.6380 H         1    LIG65    0.0000
     34 H11         3.4100   -0.9120    0.3270 H         1    LIG65    0.0000
     35 H12         2.6270    0.4510   -0.4930 H         1    LIG65    0.0000
     36 H13        -1.7560    3.7320    1.7150 H         1    LIG65    0.0000
     37 H14        -0.8230    5.0630    2.2510 H         1    LIG65    0.0000
@<TRIPOS>BOND
     1    1    2 1
     2    1    3 1
     3    1   16 2
     4    2    6 1
     5    2   13 2
     6    3    4 1
     7    4    5 1
     8    4   17 1
     9    4   18 1
    10    5    6 2
    11    5    7 1
    12    6    9 1
    13    7    8 2
    14    7   24 1
    15    8    9 1
    16    8   10 1
    17    9   19 1
    18   10   11 2
    19   10   12 1
    20   12   25 1
    21   12   26 1
    22   13   14 1
    23   13   27 1
    24   14   15 2
    25   14   28 1
    26   15   16 1
    27   16   29 1
    28   17   30 1
    29   17   31 1
    30   17   32 1
    31   18   33 1
    32   18   34 1
    33   18   35 1
    34   19   20 1
    35   19   36 1
    36   19   37 1
    37   20   21 1
    38   20   22 1
    39   20   23 1
@<TRIPOS>SUBSTRUCTURE
     1    LIG65    1   GROUP 1   LIG 1
@<TRIPOS>MOLECULE
692599
   45    48    1     0     0
SMALL
USER_CHARGES


@<TRIPOS>ATOM
      1 C1         -1.2870    1.4880   -0.3290 C.2       1    LIG66    0.0000
      2 C2         -1.7560    2.2690    0.7450 C.2       1    LIG66    0.0000
      3 O1          0.0210    1.0940   -0.3880 O.3       1    LIG66    0.0000
      4 C3          1.0750    1.6580    0.4310 C.3       1    LIG66    0.0000
      5 C4          0.5490    2.4350    1.6020 C.2       1    LIG66    0.0000
      6 C5         -0.8190    2.6690    1.7090 C.2       1    LIG66    0.0000
      7 C6          1.1430    2.9420    2.7760 C.2       1    LIG66    0.0000
      8 C7          0.0840    3.4790    3.5350 C.2       1    LIG66    0.0000
      9 N1         -1.0610    3.2980    2.8620 N.pl3     1    LIG66    0.0000
     10 C8          0.0910    4.1920    4.7490 C.2       1    LIG66    0.0000
     11 O2         -0.9920    4.5770    5.2430 O.2       1    LIG66    0.0000
     12 O3          1.2200    4.5500    5.3930 O.3       1    LIG66    0.0000
     13 C9         -3.1220    2.6020    0.8300 C.2       1    LIG66    0.0000
     14 C10        -3.9910    2.1570   -0.1790 C.2       1    LIG66    0.0000
     15 N2         -3.5080    1.4110   -1.2040 N.2       1    LIG66    0.0000
     16 C11        -2.2010    1.0640   -1.3070 C.2       1    LIG66    0.0000
     17 C12         1.8850    0.4290    0.8880 C.3       1    LIG66    0.0000
     18 C13         1.9110    2.5080   -0.5520 C.3       1    LIG66    0.0000
     19 C14         2.5120    2.8770    3.1560 C.2       1    LIG66    0.0000
     20 C15         3.5420    3.2150    2.2520 C.2       1    LIG66    0.0000
     21 C16         4.8940    3.1320    2.6230 C.2       1    LIG66    0.0000
     22 C17         5.2490    2.7120    3.9160 C.2       1    LIG66    0.0000
     23 C18         4.2370    2.3890    4.8350 C.2       1    LIG66    0.0000
     24 C19         2.8850    2.4730    4.4590 C.2       1    LIG66    0.0000
     25 S1          6.9190    2.6180    4.3840 S.o2      1    LIG66    0.0000
     26 N3          7.2000    4.1070    5.1020 N.pl3     1    LIG66    0.0000
     27 O4          7.0660    1.6030    5.5990 O.2       1    LIG66    0.0000
     28 O5          7.8380    2.6620    3.0870 O.2       1    LIG66    0.0000
     29 H1         -1.9340    3.5860    3.1700 H         1    LIG66    0.0000
     30 H2          1.0590    5.0690    6.2070 H         1    LIG66    0.0000
     31 H3         -3.4830    3.1620    1.6040 H         1    LIG66    0.0000
     32 H4         -4.9830    2.3920   -0.1410 H         1    LIG66    0.0000
     33 H5         -1.8850    0.4900   -2.0890 H         1    LIG66    0.0000
     34 H6          2.7920    0.7280    1.4100 H         1    LIG66    0.0000
     35 H7          1.2780   -0.1910    1.5500 H         1    LIG66    0.0000
     36 H8          2.1660   -0.1620    0.0160 H         1    LIG66    0.0000
     37 H9          2.9730    2.4210   -0.3320 H         1    LIG66    0.0000
     38 H10         1.7610    2.1430   -1.5690 H         1    LIG66    0.0000
     39 H11         1.6100    3.5560   -0.5150 H         1    LIG66    0.0000
     40 H12         3.3150    3.5820    1.3320 H         1    LIG66    0.0000
     41 H13         5.6210    3.3910    1.9550 H         1    LIG66    0.0000
     42 H14         4.4830    2.0880    5.7790 H         1    LIG66    0.0000
     43 H15         2.1730    2.2090    5.1410 H         1    LIG66    0.0000
     44 H16         7.4700    4.8610    4.5570 H         1    LIG66    0.0000
     45 H17         7.1070    4.2040    6.0610 H         1    LIG66    0.0000
@<TRIPOS>BOND
     1    1    2 1
     2    1    3 1
     3    1   16 2
     4    2    6 1
     5    2   13 2
     6    3    4 1
     7    4    5 1
     8    4   17 1
     9    4   18 1
    10    5    6 2
    11    5    7 1
    12    6    9 1
    13    7    8 2
    14    7   19 1
    15    8    9 1
    16    8   10 1
    17    9   29 1
    18   10   11 2
    19   10   12 1
    20   12   30 1
    21   13   14 1
    22   13   31 1
    23   14   15 2
    24   14   32 1
    25   15   16 1
    26   16   33 1
    27   17   34 1
    28   17   35 1
    29   17   36 1
    30   18   37 1
    31   18   38 1
    32   18   39 1
    33   19   20 2
    34   19   24 1
    35   20   21 1
    36   20   40 1
    37   21   22 2
    38   21   41 1
    39   22   23 1
    40   22   25 1
    41   23   24 2
    42   23   42 1
    43   24   43 1
    44   25   26 1
    45   25   27 2
    46   25   28 2
    47   26   44 1
    48   26   45 1
@<TRIPOS>SUBSTRUCTURE
     1    LIG66    1   GROUP 1   LIG 1
@<TRIPOS>MOLECULE
692704
   46    49    1     0     0
SMALL
USER_CHARGES


@<TRIPOS>ATOM
      1 C1         -0.4980    4.7050    0.5370 C.3       1    LIG67    0.0000
      2 C2         -0.1830    2.3690   -0.3350 C.3       1    LIG67    0.0000
      3 C3         -1.7030    2.1760   -0.2350 C.3       1    LIG67    0.0000
      4 O1         -2.2310    3.0290    0.7790 O.3       1    LIG67    0.0000
      5 C4         -2.0070    4.4270    0.6040 C.3       1    LIG67    0.0000
      6 C5          0.1530    3.8560   -0.5780 C.3       1    LIG67    0.0000
      7 O2         -0.4490    4.2660   -1.8230 O.3       1    LIG67    0.0000
      8 C6          2.3470    4.2730   -1.7720 C.2       1    LIG67    0.0000
      9 C7          1.6220    4.0430   -0.6050 C.2       1    LIG67    0.0000
     10 C8          0.2460    4.2920   -3.0020 C.2       1    LIG67    0.0000
     11 C9         -0.4780    4.3390   -4.2030 C.2       1    LIG67    0.0000
     12 N1          0.1800    4.3770   -5.3860 N.2       1    LIG67    0.0000
     13 C10         1.5320    4.3730   -5.4620 C.2       1    LIG67    0.0000
     14 C11         2.3000    4.3350   -4.2880 C.2       1    LIG67    0.0000
     15 C12         1.6640    4.3120   -3.0260 C.2       1    LIG67    0.0000
     16 N2          3.6610    4.3860   -1.4210 N.pl3     1    LIG67    0.0000
     17 C13         3.7890    4.1570   -0.0840 C.2       1    LIG67    0.0000
     18 C14         2.5190    3.9490    0.4420 C.2       1    LIG67    0.0000
     19 C15         4.9650    4.1090    0.6980 C.2       1    LIG67    0.0000
     20 O3          6.1010    4.2420    0.1950 O.2       1    LIG67    0.0000
     21 N3          4.9240    3.8950    2.0220 N.am      1    LIG67    0.0000
     22 C16         4.7450    4.7560   -2.2800 C.3       1    LIG67    0.0000
     23 C17         5.4290    3.5140   -2.8710 C.3       1    LIG67    0.0000
     24 O4          6.3720    3.9280   -3.8550 O.3       1    LIG67    0.0000
     25 C18         7.0940    2.8960   -4.5200 C.3       1    LIG67    0.0000
     26 H1         -0.0600    4.4540    1.5050 H         1    LIG67    0.0000
     27 H2         -0.3370    5.7650    0.3370 H         1    LIG67    0.0000
     28 H3          0.2710    2.0310    0.5980 H         1    LIG67    0.0000
     29 H4          0.1990    1.7620   -1.1580 H         1    LIG67    0.0000
     30 H5         -2.1680    2.4130   -1.1940 H         1    LIG67    0.0000
     31 H6         -1.9200    1.1390    0.0190 H         1    LIG67    0.0000
     32 H7         -2.4370    4.9680    1.4470 H         1    LIG67    0.0000
     33 H8         -2.4860    4.7640   -0.3160 H         1    LIG67    0.0000
     34 H9         -1.4980    4.3420   -4.1870 H         1    LIG67    0.0000
     35 H10         1.9910    4.3900   -6.3740 H         1    LIG67    0.0000
     36 H11         3.3100    4.2990   -4.3820 H         1    LIG67    0.0000
     37 H12         2.2850    3.7500    1.4150 H         1    LIG67    0.0000
     38 H13         5.7510    3.8600    2.5270 H         1    LIG67    0.0000
     39 H14         4.0740    3.7770    2.4730 H         1    LIG67    0.0000
     40 H15         4.4000    5.4120   -3.0760 H         1    LIG67    0.0000
     41 H16         5.4890    5.3380   -1.7370 H         1    LIG67    0.0000
     42 H17         5.9420    2.9690   -2.0760 H         1    LIG67    0.0000
     43 H18         4.6850    2.8610   -3.3280 H         1    LIG67    0.0000
     44 H19         7.7810    3.3460   -5.2360 H         1    LIG67    0.0000
     45 H20         7.6640    2.3140   -3.7940 H         1    LIG67    0.0000
     46 H21         6.4020    2.2410   -5.0490 H         1    LIG67    0.0000
@<TRIPOS>BOND
     1    1    5 1
     2    1    6 1
     3    1   26 1
     4    1   27 1
     5    2    3 1
     6    2    6 1
     7    2   28 1
     8    2   29 1
     9    3    4 1
    10    3   30 1
    11    3   31 1
    12    4    5 1
    13    5   32 1
    14    5   33 1
    15    6    7 1
    16    6    9 1
    17    7   10 1
    18    8    9 2
    19    8   15 1
    20    8   16 1
    21    9   18 1
    22   10   11 2
    23   10   15 1
    24   11   12 1
    25   11   34 1
    26   12   13 2
    27   13   14 1
    28   13   35 1
    29   14   15 2
    30   14   36 1
    31   16   17 1
    32   16   22 1
    33   17   18 2
    34   17   19 1
    35   18   37 1
    36   19   20 2
    37   19   21 1
    38   21   38 1
    39   21   39 1
    40   22   23 1
    41   22   40 1
    42   22   41 1
    43   23   24 1
    44   23   42 1
    45   23   43 1
    46   24   25 1
    47   25   44 1
    48   25   45 1
    49   25   46 1
@<TRIPOS>SUBSTRUCTURE
     1    LIG67    1   GROUP 1   LIG 1
@<TRIPOS>MOLECULE
50778205
   43    46    1     0     0
SMALL
USER_CHARGES


@<TRIPOS>ATOM
      1 O1          9.9620  -11.6560    4.8280 O.3       1    LIG68    0.0000
      2 C1          7.1740   -9.3010    1.0650 C.3       1    LIG68    0.0000
      3 C2          8.2840  -10.1940    0.4370 C.3       1    LIG68    0.0000
      4 C3          9.0040  -10.8220    2.7670 C.2       1    LIG68    0.0000
      5 C4          9.1590  -10.9240    1.3870 C.2       1    LIG68    0.0000
      6 C5         10.2100  -11.7800    1.0440 C.2       1    LIG68    0.0000
      7 S1         11.0080  -12.4600    2.4250 S.3       1    LIG68    0.0000
      8 C6          9.9320  -11.5860    3.4660 C.2       1    LIG68    0.0000
      9 C7         10.9940  -12.2460    5.4950 C.2       1    LIG68    0.0000
     10 C8          7.1260   -9.2950    2.5390 C.2       1    LIG68    0.0000
     11 C9          8.0030  -10.0220    3.3310 C.2       1    LIG68    0.0000
     12 S2          7.6970   -9.8100    5.0220 S.3       1    LIG68    0.0000
     13 N1          6.4230   -8.7730    4.6390 N.2       1    LIG68    0.0000
     14 C10         6.2290   -8.5860    3.3240 C.2       1    LIG68    0.0000
     15 C11        10.6280  -12.1030   -0.2560 C.2       1    LIG68    0.0000
     16 O2         10.0750  -11.6310   -1.2730 O.2       1    LIG68    0.0000
     17 N2         11.6530  -12.9440   -0.4380 N.am      1    LIG68    0.0000
     18 C12        10.6960  -13.1520    6.5260 C.2       1    LIG68    0.0000
     19 C13        11.7240  -13.7690    7.2560 C.2       1    LIG68    0.0000
     20 C14        13.0680  -13.4680    6.9540 C.2       1    LIG68    0.0000
     21 N3         13.3180  -12.5680    5.9650 N.2       1    LIG68    0.0000
     22 C15        12.3480  -11.9550    5.2420 C.2       1    LIG68    0.0000
     23 C16        14.1300  -14.0680    7.6700 C.2       1    LIG68    0.0000
     24 N4         15.3290  -14.4470    7.1150 N.am      1    LIG68    1.0000
     25 O3         13.9510  -14.2860    8.8920 O.2       1    LIG68    0.0000
     26 C17        16.3160  -15.0580    7.9500 C.3       1    LIG68    0.0000
     27 C18        15.6210  -14.2760    5.7250 C.3       1    LIG68    0.0000
     28 H1          6.2070   -9.6430    0.6920 H         1    LIG68    0.0000
     29 H2          7.3240   -8.2750    0.7230 H         1    LIG68    0.0000
     30 H3          8.9150   -9.5570   -0.1860 H         1    LIG68    0.0000
     31 H4          7.8000  -10.9250   -0.2120 H         1    LIG68    0.0000
     32 H5          5.4970   -7.9860    2.9430 H         1    LIG68    0.0000
     33 H6         11.9380  -13.1650   -1.3380 H         1    LIG68    0.0000
     34 H7         12.1080  -13.3320    0.3260 H         1    LIG68    0.0000
     35 H8          9.7230  -13.3670    6.7440 H         1    LIG68    0.0000
     36 H9         11.4900  -14.4300    7.9990 H         1    LIG68    0.0000
     37 H10        12.6050  -11.2830    4.5190 H         1    LIG68    0.0000
     38 H11        17.2190  -15.3060    7.3920 H         1    LIG68    0.0000
     39 H12        16.5890  -14.3750    8.7560 H         1    LIG68    0.0000
     40 H13        15.9150  -15.9760    8.3830 H         1    LIG68    0.0000
     41 H14        16.5770  -14.7290    5.4600 H         1    LIG68    0.0000
     42 H15        14.8450  -14.7450    5.1180 H         1    LIG68    0.0000
     43 H16        15.6760  -13.2130    5.4850 H         1    LIG68    0.0000
@<TRIPOS>BOND
     1    1    8 1
     2    1    9 1
     3    2    3 1
     4    2   10 1
     5    2   28 1
     6    2   29 1
     7    3    5 1
     8    3   30 1
     9    3   31 1
    10    4    5 1
    11    4    8 2
    12    4   11 1
    13    5    6 2
    14    6    7 1
    15    6   15 1
    16    7    8 1
    17    9   18 2
    18    9   22 1
    19   10   11 2
    20   10   14 1
    21   11   12 1
    22   12   13 1
    23   13   14 2
    24   14   32 1
    25   15   16 2
    26   15   17 1
    27   17   33 1
    28   17   34 1
    29   18   19 1
    30   18   35 1
    31   19   20 2
    32   19   36 1
    33   20   21 1
    34   20   23 1
    35   21   22 2
    36   22   37 1
    37   23   24 1
    38   23   25 2
    39   24   26 1
    40   24   27 1
    41   26   38 1
    42   26   39 1
    43   26   40 1
    44   27   41 1
    45   27   42 1
    46   27   43 1
@<TRIPOS>SUBSTRUCTURE
     1    LIG68    1   GROUP 1   LIG 1
@<TRIPOS>MOLECULE
50778307
   30    32    1     0     0
SMALL
USER_CHARGES


@<TRIPOS>ATOM
      1 C1          6.7190   -8.0330    1.0670 C.3       1    LIG69    0.0000
      2 C2          7.9370   -8.8680    0.5750 C.3       1    LIG69    0.0000
      3 C3          8.7690   -8.9320    2.9530 C.2       1    LIG69    0.0000
      4 C4          8.9190   -9.2750    1.6110 C.2       1    LIG69    0.0000
      5 C5         10.0780  -10.0270    1.3910 C.2       1    LIG69    0.0000
      6 S1         10.9870  -10.3110    2.8390 S.3       1    LIG69    0.0000
      7 C6          9.8070   -9.4190    3.7400 C.2       1    LIG69    0.0000
      8 S2          9.9290   -9.1740    5.4520 S.3       1    LIG69    0.0000
      9 C7         11.4600  -10.0200    5.8850 C.3       1    LIG69    0.0000
     10 C8          6.6930   -7.7460    2.5130 C.2       1    LIG69    0.0000
     11 C9          7.6730   -8.1800    3.3940 C.2       1    LIG69    0.0000
     12 S3          7.3580   -7.6830    5.0230 S.3       1    LIG69    0.0000
     13 N1          5.9480   -6.9210    4.4990 N.2       1    LIG69    0.0000
     14 C10         5.7150   -7.0250    3.1810 C.2       1    LIG69    0.0000
     15 C11        10.5210  -10.5330    0.1590 C.2       1    LIG69    0.0000
     16 O1          9.8790  -10.3380   -0.8990 O.2       1    LIG69    0.0000
     17 N2         11.6670  -11.2470    0.1220 N.am      1    LIG69    0.0000
     18 C12        12.1910  -11.7960   -1.0760 C.3       1    LIG69    0.0000
     19 H1          5.8070   -8.5740    0.8080 H         1    LIG69    0.0000
     20 H2          6.7140   -7.0840    0.5290 H         1    LIG69    0.0000
     21 H3          8.4630   -8.2810   -0.1800 H         1    LIG69    0.0000
     22 H4          7.5540   -9.7700    0.0960 H         1    LIG69    0.0000
     23 H5         11.6340   -9.9240    6.9570 H         1    LIG69    0.0000
     24 H6         11.3830  -11.0760    5.6260 H         1    LIG69    0.0000
     25 H7         12.2930   -9.5720    5.3440 H         1    LIG69    0.0000
     26 H8          4.9020   -6.6150    2.7200 H         1    LIG69    0.0000
     27 H9         12.1520  -11.3890    0.9490 H         1    LIG69    0.0000
     28 H10        13.1180  -12.3250   -0.8520 H         1    LIG69    0.0000
     29 H11        11.4770  -12.4980   -1.5100 H         1    LIG69    0.0000
     30 H12        12.3990  -11.0010   -1.7930 H         1    LIG69    0.0000
@<TRIPOS>BOND
     1    1    2 1
     2    1   10 1
     3    1   19 1
     4    1   20 1
     5    2    4 1
     6    2   21 1
     7    2   22 1
     8    3    4 1
     9    3    7 2
    10    3   11 1
    11    4    5 2
    12    5    6 1
    13    5   15 1
    14    6    7 1
    15    7    8 1
    16    8    9 1
    17    9   23 1
    18    9   24 1
    19    9   25 1
    20   10   11 2
    21   10   14 1
    22   11   12 1
    23   12   13 1
    24   13   14 2
    25   14   26 1
    26   15   16 2
    27   15   17 1
    28   17   18 1
    29   17   27 1
    30   18   28 1
    31   18   29 1
    32   18   30 1
@<TRIPOS>SUBSTRUCTURE
     1    LIG69    1   GROUP 1   LIG 1
@<TRIPOS>MOLECULE
50778252
   33    36    1     0     0
SMALL
USER_CHARGES


@<TRIPOS>ATOM
      1 O1          3.6360   -5.5940   -0.3530 O.3       1    LIG70    0.0000
      2 C1          8.0040   -7.0770    2.1210 C.3       1    LIG70    0.0000
      3 C2          8.3390   -6.0210    1.0270 C.3       1    LIG70    0.0000
      4 C3          5.8860   -5.9310    0.4580 C.2       1    LIG70    0.0000
      5 C4          7.1940   -5.5070    0.2360 C.2       1    LIG70    0.0000
      6 C5          7.2670   -4.5660   -0.7950 C.2       1    LIG70    0.0000
      7 S1          5.7210   -4.2060   -1.4920 S.3       1    LIG70    0.0000
      8 C6          4.9700   -5.3150   -0.3900 C.2       1    LIG70    0.0000
      9 C7          2.6970   -4.8640   -1.0180 C.2       1    LIG70    0.0000
     10 C8          6.5770   -7.4320    2.2420 C.2       1    LIG70    0.0000
     11 C9          5.5860   -6.8780    1.4450 C.2       1    LIG70    0.0000
     12 S2          4.0130   -7.4930    1.8250 S.3       1    LIG70    0.0000
     13 N1          4.7030   -8.4610    3.0210 N.2       1    LIG70    0.0000
     14 C10         6.0350   -8.3400    3.1390 C.2       1    LIG70    0.0000
     15 C11         8.4280   -3.9390   -1.2700 C.2       1    LIG70    0.0000
     16 O2          9.5600   -4.1750   -0.7940 O.2       1    LIG70    0.0000
     17 N2          8.3450   -3.0520   -2.2700 N.am      1    LIG70    0.0000
     18 C12         1.3910   -5.3800   -1.0840 C.2       1    LIG70    0.0000
     19 C13         0.3940   -4.6480   -1.7490 C.2       1    LIG70    0.0000
     20 C14         0.7020   -3.4120   -2.3370 C.2       1    LIG70    0.0000
     21 C15         2.0160   -2.9280   -2.2460 C.2       1    LIG70    0.0000
     22 N3          2.9550   -3.6600   -1.5960 N.2       1    LIG70    0.0000
     23 H1          8.5660   -7.9870    1.9030 H         1    LIG70    0.0000
     24 H2          8.3440   -6.6920    3.0840 H         1    LIG70    0.0000
     25 H3          9.0560   -6.4680    0.3380 H         1    LIG70    0.0000
     26 H4          8.8230   -5.1740    1.5150 H         1    LIG70    0.0000
     27 H5          6.5890   -8.8620    3.8180 H         1    LIG70    0.0000
     28 H6          9.1490   -2.6200   -2.5960 H         1    LIG70    0.0000
     29 H7          7.4850   -2.8430   -2.6650 H         1    LIG70    0.0000
     30 H8          1.1690   -6.2780   -0.6520 H         1    LIG70    0.0000
     31 H9         -0.5560   -5.0160   -1.8030 H         1    LIG70    0.0000
     32 H10        -0.0170   -2.8730   -2.8220 H         1    LIG70    0.0000
     33 H11         2.2640   -2.0300   -2.6630 H         1    LIG70    0.0000
@<TRIPOS>BOND
     1    1    8 1
     2    1    9 1
     3    2    3 1
     4    2   10 1
     5    2   23 1
     6    2   24 1
     7    3    5 1
     8    3   25 1
     9    3   26 1
    10    4    5 1
    11    4    8 2
    12    4   11 1
    13    5    6 2
    14    6    7 1
    15    6   15 1
    16    7    8 1
    17    9   18 2
    18    9   22 1
    19   10   11 2
    20   10   14 1
    21   11   12 1
    22   12   13 1
    23   13   14 2
    24   14   27 1
    25   15   16 2
    26   15   17 1
    27   17   28 1
    28   17   29 1
    29   18   19 1
    30   18   30 1
    31   19   20 2
    32   19   31 1
    33   20   21 1
    34   20   32 1
    35   21   22 2
    36   21   33 1
@<TRIPOS>SUBSTRUCTURE
     1    LIG70    1   GROUP 1   LIG 1
@<TRIPOS>MOLECULE
692616
   28    30    1     0     0
SMALL
USER_CHARGES


@<TRIPOS>ATOM
      1 C1         -0.0610   -0.1290    0.3900 C.2       1    LIG71    0.0000
      2 C2         -0.5690    1.1010    0.8680 C.2       1    LIG71    0.0000
      3 O1          1.2920   -0.3770    0.3320 O.3       1    LIG71    0.0000
      4 C3          2.2960    0.5590    0.7950 C.3       1    LIG71    0.0000
      5 C4          1.7240    1.8360    1.2650 C.2       1    LIG71    0.0000
      6 C5          0.3570    2.0670    1.2910 C.2       1    LIG71    0.0000
      7 C6          2.3450    2.9830    1.7400 C.2       1    LIG71    0.0000
      8 C7          1.3300    3.8890    2.0490 C.2       1    LIG71    0.0000
      9 N1          0.1500    3.3060    1.7680 N.pl3     1    LIG71    0.0000
     10 C8          1.4770    5.1850    2.5610 C.2       1    LIG71    0.0000
     11 O2          0.4660    5.8820    2.7900 O.2       1    LIG71    0.0000
     12 N2          2.6830    5.7130    2.8180 N.am      1    LIG71    0.0000
     13 C9         -1.9580    1.3240    0.9050 C.2       1    LIG71    0.0000
     14 C10        -2.8190    0.3060    0.4630 C.2       1    LIG71    0.0000
     15 N3         -2.3030   -0.8640    0.0100 N.2       1    LIG71    0.0000
     16 C11        -0.9690   -1.1090   -0.0400 C.2       1    LIG71    0.0000
     17 C12         3.1000   -0.1280    1.9100 C.3       1    LIG71    0.0000
     18 H1          2.9700    0.7680   -0.0370 H         1    LIG71    0.0000
     19 H2          3.3490    3.1290    1.8440 H         1    LIG71    0.0000
     20 H3         -0.7170    3.7220    1.8910 H         1    LIG71    0.0000
     21 H4          2.7460    6.6130    3.1720 H         1    LIG71    0.0000
     22 H5          3.4870    5.1990    2.6510 H         1    LIG71    0.0000
     23 H6         -2.3430    2.2060    1.2460 H         1    LIG71    0.0000
     24 H7         -3.8290    0.4450    0.4820 H         1    LIG71    0.0000
     25 H8         -0.6280   -2.0050   -0.3910 H         1    LIG71    0.0000
     26 H9          3.9190    0.5150    2.2360 H         1    LIG71    0.0000
     27 H10         2.4510   -0.3480    2.7580 H         1    LIG71    0.0000
     28 H11         3.5150   -1.0610    1.5290 H         1    LIG71    0.0000
@<TRIPOS>BOND
     1    1    2 1
     2    1    3 1
     3    1   16 2
     4    2    6 1
     5    2   13 2
     6    3    4 1
     7    4    5 1
     8    4   17 1
     9    4   18 1
    10    5    6 2
    11    5    7 1
    12    6    9 1
    13    7    8 2
    14    7   19 1
    15    8    9 1
    16    8   10 1
    17    9   20 1
    18   10   11 2
    19   10   12 1
    20   12   21 1
    21   12   22 1
    22   13   14 1
    23   13   23 1
    24   14   15 2
    25   14   24 1
    26   15   16 1
    27   16   25 1
    28   17   26 1
    29   17   27 1
    30   17   28 1
@<TRIPOS>SUBSTRUCTURE
     1    LIG71    1   GROUP 1   LIG 1
@<TRIPOS>MOLECULE
51422084
   36    38    1     0     0
SMALL
USER_CHARGES


@<TRIPOS>ATOM
      1 C1         40.7270  -14.3300    0.1140 C.2       1    LIG72    0.0000
      2 C2         40.7780  -15.7060    0.3540 C.2       1    LIG72    0.0000
      3 N1         41.9410  -16.2690    0.7370 N.2       1    LIG72    0.0000
      4 C3         43.0800  -15.5550    0.8730 C.2       1    LIG72    0.0000
      5 C4         43.1280  -14.1630    0.6040 C.2       1    LIG72    0.0000
      6 C5         41.8840  -13.5270    0.2710 C.2       1    LIG72    0.0000
      7 C6         41.7530  -12.1040    0.2040 C.2       1    LIG72    0.0000
      8 C7         40.6190  -11.3780   -0.1880 C.2       1    LIG72    0.0000
      9 C8         40.5790   -9.9740   -0.1990 C.2       1    LIG72    0.0000
     10 O1         41.5710   -9.2910    0.1470 O.2       1    LIG72    0.0000
     11 N2         39.4450   -9.3570   -0.5940 N.am      1    LIG72    0.0000
     12 C9         44.4220  -13.5240    0.6330 C.2       1    LIG72    0.0000
     13 C10        44.7590  -12.4870   -0.2800 C.2       1    LIG72    0.0000
     14 C11        46.7140  -13.3580    1.5770 C.2       1    LIG72    0.0000
     15 C12        45.4360  -13.9500    1.5410 C.2       1    LIG72    0.0000
     16 C13        39.3120   -7.9460   -0.6340 C.3       1    LIG72    0.0000
     17 C14        46.9880  -12.3260    0.6720 C.2       1    LIG72    0.0000
     18 C15        46.0320  -11.8980   -0.2400 C.2       1    LIG72    0.0000
     19 N3         46.5580  -10.9160   -0.9870 N.pl3     1    LIG72    0.0000
     20 C16        47.8220  -10.6910   -0.5830 C.2       1    LIG72    0.0000
     21 C17        48.1270  -11.5610    0.4610 C.2       1    LIG72    0.0000
     22 H1         39.8240  -13.9290   -0.1320 H         1    LIG72    0.0000
     23 H2         39.9390  -16.2780    0.2580 H         1    LIG72    0.0000
     24 H3         43.9230  -16.0720    1.1240 H         1    LIG72    0.0000
     25 H4         42.5510  -11.5410    0.4940 H         1    LIG72    0.0000
     26 H5         39.7790  -11.8710   -0.4890 H         1    LIG72    0.0000
     27 H6         38.6880   -9.9020   -0.8600 H         1    LIG72    0.0000
     28 H7         44.1010  -12.1770   -0.9950 H         1    LIG72    0.0000
     29 H8         47.4180  -13.6730    2.2460 H         1    LIG72    0.0000
     30 H9         45.2420  -14.6900    2.2170 H         1    LIG72    0.0000
     31 H10        38.3110   -7.6900   -0.9810 H         1    LIG72    0.0000
     32 H11        39.4630   -7.5280    0.3630 H         1    LIG72    0.0000
     33 H12        40.0470   -7.5200   -1.3200 H         1    LIG72    0.0000
     34 H13        46.1020  -10.4430   -1.7010 H         1    LIG72    0.0000
     35 H14        48.4560   -9.9960   -0.9780 H         1    LIG72    0.0000
     36 H15        49.0120  -11.6250    0.9650 H         1    LIG72    0.0000
@<TRIPOS>BOND
     1    1    2 2
     2    1    6 1
     3    1   22 1
     4    2    3 1
     5    2   23 1
     6    3    4 2
     7    4    5 1
     8    4   24 1
     9    5    6 2
    10    5   12 1
    11    6    7 1
    12    7    8 2
    13    7   25 1
    14    8    9 1
    15    8   26 1
    16    9   10 2
    17    9   11 1
    18   11   16 1
    19   11   27 1
    20   12   13 2
    21   12   15 1
    22   13   18 1
    23   13   28 1
    24   14   15 2
    25   14   17 1
    26   14   29 1
    27   15   30 1
    28   16   31 1
    29   16   32 1
    30   16   33 1
    31   17   18 2
    32   17   21 1
    33   18   19 1
    34   19   20 1
    35   19   34 1
    36   20   21 2
    37   20   35 1
    38   21   36 1
@<TRIPOS>SUBSTRUCTURE
     1    LIG72    1   GROUP 1   LIG 1
@<TRIPOS>MOLECULE
51419721
   51    56    1     0     0
SMALL
USER_CHARGES


@<TRIPOS>ATOM
      1 C1         15.5220  -11.3500    0.6160 C.2       1    LIG73    0.0000
      2 N1         15.6810  -12.6650    0.4880 N.am      1    LIG73    0.0000
      3 C2         14.4840  -13.3970    0.6260 C.3       1    LIG73    0.0000
      4 C3         13.3920  -12.3310    0.8250 C.3       1    LIG73    0.0000
      5 C4         14.1330  -10.9730    0.8800 C.3       1    LIG73    0.0000
      6 C5         13.9290  -10.2470    2.2180 C.3       1    LIG73    0.0000
      7 N2         12.7390   -9.4640    2.0700 N.pl3     1    LIG73    0.0000
      8 C6         12.3780   -9.3950    0.6890 C.3       1    LIG73    0.0000
      9 C7         13.5550   -9.9610   -0.1060 C.3       1    LIG73    0.0000
     10 O1         16.4710  -10.5380    0.5470 O.2       1    LIG73    0.0000
     11 C8          9.9550   -7.8300    3.9590 C.2       1    LIG73    0.0000
     12 C9         10.7050   -8.3520    2.9020 C.2       1    LIG73    0.0000
     13 C10        12.0100   -8.8870    3.1130 C.2       1    LIG73    0.0000
     14 C11        12.4900   -8.8040    4.4650 C.2       1    LIG73    0.0000
     15 C12        11.6660   -8.2700    5.4870 C.2       1    LIG73    0.0000
     16 N3         10.4270   -7.8000    5.2180 N.2       1    LIG73    0.0000
     17 N4          8.7610   -7.4020    3.5300 N.pl3     1    LIG73    0.0000
     18 C13         9.8670   -8.2140    1.7920 C.2       1    LIG73    0.0000
     19 C14         8.6820   -7.6230    2.2120 C.2       1    LIG73    0.0000
     20 N5         17.4920  -10.3140    6.3090 N.pl3     1    LIG73    0.0000
     21 N6         17.1900  -11.4470    6.8750 N.2       1    LIG73    0.0000
     22 C15        15.8710  -11.6790    6.7420 C.2       1    LIG73    0.0000
     23 C16        15.3270  -10.6150    6.0430 C.2       1    LIG73    0.0000
     24 C17        14.0190  -10.3330    5.6220 C.2       1    LIG73    0.0000
     25 C18        13.7930   -9.1400    4.8930 C.2       1    LIG73    0.0000
     26 C19        14.8700   -8.2520    4.6440 C.2       1    LIG73    0.0000
     27 C20        16.1760   -8.5580    5.0790 C.2       1    LIG73    0.0000
     28 C21        16.3850   -9.7580    5.7800 C.2       1    LIG73    0.0000
     29 C22        18.8140   -9.7960    6.2840 C.3       1    LIG73    0.0000
     30 H1         16.5430  -13.0780    0.3280 H         1    LIG73    0.0000
     31 H2         14.2910  -13.9810   -0.2750 H         1    LIG73    0.0000
     32 H3         14.5440  -14.0550    1.4950 H         1    LIG73    0.0000
     33 H4         12.6980  -12.3630   -0.0160 H         1    LIG73    0.0000
     34 H5         12.8440  -12.5240    1.7480 H         1    LIG73    0.0000
     35 H6         14.7790   -9.5900    2.4060 H         1    LIG73    0.0000
     36 H7         13.8350  -10.9890    3.0100 H         1    LIG73    0.0000
     37 H8         11.4990  -10.0140    0.5010 H         1    LIG73    0.0000
     38 H9         12.2080   -8.3650    0.3720 H         1    LIG73    0.0000
     39 H10        14.2750   -9.1650   -0.3070 H         1    LIG73    0.0000
     40 H11        13.2310  -10.4220   -1.0400 H         1    LIG73    0.0000
     41 H12        12.0010   -8.2130    6.4510 H         1    LIG73    0.0000
     42 H13         8.0720   -7.0020    4.0830 H         1    LIG73    0.0000
     43 H14        10.0570   -8.4870    0.8310 H         1    LIG73    0.0000
     44 H15         7.8840   -7.3980    1.6170 H         1    LIG73    0.0000
     45 H16        15.3660  -12.4940    7.0910 H         1    LIG73    0.0000
     46 H17        13.2570  -10.9810    5.8290 H         1    LIG73    0.0000
     47 H18        14.7100   -7.3800    4.1360 H         1    LIG73    0.0000
     48 H19        16.9480   -7.9210    4.8880 H         1    LIG73    0.0000
     49 H20        18.8620   -8.8390    5.7650 H         1    LIG73    0.0000
     50 H21        19.1640   -9.6610    7.3080 H         1    LIG73    0.0000
     51 H22        19.4670  -10.5060    5.7760 H         1    LIG73    0.0000
@<TRIPOS>BOND
     1    1    2 1
     2    1    5 1
     3    1   10 2
     4    2    3 1
     5    2   30 1
     6    3    4 1
     7    3   31 1
     8    3   32 1
     9    4    5 1
    10    4   33 1
    11    4   34 1
    12    5    6 1
    13    5    9 1
    14    6    7 1
    15    6   35 1
    16    6   36 1
    17    7    8 1
    18    7   13 1
    19    8    9 1
    20    8   37 1
    21    8   38 1
    22    9   39 1
    23    9   40 1
    24   11   12 1
    25   11   16 2
    26   11   17 1
    27   12   13 2
    28   12   18 1
    29   13   14 1
    30   14   15 2
    31   14   25 1
    32   15   16 1
    33   15   41 1
    34   17   19 1
    35   17   42 1
    36   18   19 2
    37   18   43 1
    38   19   44 1
    39   20   21 1
    40   20   28 1
    41   20   29 1
    42   21   22 2
    43   22   23 1
    44   22   45 1
    45   23   24 1
    46   23   28 2
    47   24   25 2
    48   24   46 1
    49   25   26 1
    50   26   27 2
    51   26   47 1
    52   27   28 1
    53   27   48 1
    54   29   49 1
    55   29   50 1
    56   29   51 1
@<TRIPOS>SUBSTRUCTURE
     1    LIG73    1   GROUP 1   LIG 1
@<TRIPOS>MOLECULE
692602
   35    37    1     0     0
SMALL
USER_CHARGES


@<TRIPOS>ATOM
      1 C1         -1.3020    1.4450   -0.3150 C.2       1    LIG74    0.0000
      2 C2         -2.4380    1.5330    0.5200 C.2       1    LIG74    0.0000
      3 O1         -0.3560    0.4660   -0.1380 O.3       1    LIG74    0.0000
      4 C3         -0.4110   -0.5320    0.9110 C.3       1    LIG74    0.0000
      5 C4         -1.6250   -0.4130    1.7620 C.2       1    LIG74    0.0000
      6 C5         -2.5660    0.5830    1.5440 C.2       1    LIG74    0.0000
      7 C6         -2.0740   -1.1740    2.8420 C.2       1    LIG74    0.0000
      8 C7         -3.2840   -0.5980    3.2580 C.2       1    LIG74    0.0000
      9 N1         -3.5440    0.4460    2.4510 N.pl3     1    LIG74    0.0000
     10 C8         -4.1290   -0.9620    4.3190 C.2       1    LIG74    0.0000
     11 O2         -5.1830   -0.3180    4.5130 O.2       1    LIG74    0.0000
     12 N2         -3.8590   -1.9700    5.1610 N.am      1    LIG74    0.0000
     13 C9         -3.3920    2.5460    0.3080 C.2       1    LIG74    0.0000
     14 C10        -3.1900    3.4570   -0.7410 C.2       1    LIG74    0.0000
     15 N3         -2.0900    3.3470   -1.5280 N.2       1    LIG74    0.0000
     16 C11        -1.1530    2.3820   -1.3500 C.2       1    LIG74    0.0000
     17 C12        -0.3670   -1.9010    0.2050 C.3       1    LIG74    0.0000
     18 C13         0.8690   -0.3480    1.7470 C.3       1    LIG74    0.0000
     19 C14        -1.4350   -2.2700    3.3660 C.2       1    LIG74    0.0000
     20 C15        -1.9430   -3.5010    3.2790 C.2       1    LIG74    0.0000
     21 H1         -4.3240    1.0180    2.5230 H         1    LIG74    0.0000
     22 H2         -4.4800   -2.1740    5.8770 H         1    LIG74    0.0000
     23 H3         -3.0480   -2.4890    5.0590 H         1    LIG74    0.0000
     24 H4         -4.2190    2.6270    0.9010 H         1    LIG74    0.0000
     25 H5         -3.8680    4.2000   -0.9130 H         1    LIG74    0.0000
     26 H6         -0.3420    2.3380   -1.9680 H         1    LIG74    0.0000
     27 H7         -0.2880   -2.7080    0.9340 H         1    LIG74    0.0000
     28 H8         -1.2700   -2.0410   -0.3910 H         1    LIG74    0.0000
     29 H9          0.4990   -1.9390   -0.4560 H         1    LIG74    0.0000
     30 H10         0.9740   -1.1520    2.4750 H         1    LIG74    0.0000
     31 H11         1.7370   -0.3600    1.0870 H         1    LIG74    0.0000
     32 H12         0.8390    0.6100    2.2690 H         1    LIG74    0.0000
     33 H13        -0.5520   -2.1490    3.7990 H         1    LIG74    0.0000
     34 H14        -1.4400   -4.2660    3.6570 H         1    LIG74    0.0000
     35 H15        -2.8170   -3.6660    2.8390 H         1    LIG74    0.0000
@<TRIPOS>BOND
     1    1    2 1
     2    1    3 1
     3    1   16 2
     4    2    6 1
     5    2   13 2
     6    3    4 1
     7    4    5 1
     8    4   17 1
     9    4   18 1
    10    5    6 2
    11    5    7 1
    12    6    9 1
    13    7    8 2
    14    7   19 1
    15    8    9 1
    16    8   10 1
    17    9   21 1
    18   10   11 2
    19   10   12 1
    20   12   22 1
    21   12   23 1
    22   13   14 1
    23   13   24 1
    24   14   15 2
    25   14   25 1
    26   15   16 1
    27   16   26 1
    28   17   27 1
    29   17   28 1
    30   17   29 1
    31   18   30 1
    32   18   31 1
    33   18   32 1
    34   19   20 2
    35   19   33 1
    36   20   34 1
    37   20   35 1
@<TRIPOS>SUBSTRUCTURE
     1    LIG74    1   GROUP 1   LIG 1
@<TRIPOS>MOLECULE
692604
   30    32    1     0     0
SMALL
USER_CHARGES


@<TRIPOS>ATOM
      1 C1         -0.2010   -0.7060    2.8310 C.2       1    LIG75    0.0000
      2 C2         -0.5670    0.4850    2.1870 C.2       1    LIG75    0.0000
      3 C3         -0.2230    1.7300    2.7730 C.2       1    LIG75    0.0000
      4 C4          0.4860    1.7380    4.0040 C.2       1    LIG75    0.0000
      5 C5          0.8230    0.5060    4.5970 C.2       1    LIG75    0.0000
      6 N1          0.4740   -0.6590    4.0020 N.2       1    LIG75    0.0000
      7 O1         -1.2540    0.3890    1.0010 O.3       1    LIG75    0.0000
      8 C6         -1.6860    1.5260    0.2230 C.3       1    LIG75    0.0000
      9 C7         -1.3200    2.8130    0.8530 C.2       1    LIG75    0.0000
     10 C8         -0.6300    2.8850    2.0580 C.2       1    LIG75    0.0000
     11 C9         -1.5610    4.1110    0.4230 C.2       1    LIG75    0.0000
     12 C10        -1.0100    4.9560    1.3810 C.2       1    LIG75    0.0000
     13 N2         -0.4620    4.1900    2.3410 N.pl3     1    LIG75    0.0000
     14 C11        -1.0270    1.4020   -1.1630 C.3       1    LIG75    0.0000
     15 C12        -3.2140    1.4170    0.0720 C.3       1    LIG75    0.0000
     16 C13        -1.0130    6.3540    1.3690 C.2       1    LIG75    0.0000
     17 O2         -1.5880    7.0430    0.3610 O.3       1    LIG75    0.0000
     18 O3         -0.4770    6.9920    2.3010 O.2       1    LIG75    0.0000
     19 Cl1         0.9720    3.1370    4.8350 Cl        1    LIG75    0.0000
     20 H1         -0.4440   -1.6070    2.4180 H         1    LIG75    0.0000
     21 H2          1.3330    0.4730    5.4810 H         1    LIG75    0.0000
     22 H3         -2.0490    4.3880   -0.4290 H         1    LIG75    0.0000
     23 H4         -0.0120    4.5400    3.1250 H         1    LIG75    0.0000
     24 H5         -1.3710    2.2010   -1.8220 H         1    LIG75    0.0000
     25 H6          0.0580    1.4570   -1.0660 H         1    LIG75    0.0000
     26 H7         -1.2920    0.4410   -1.6060 H         1    LIG75    0.0000
     27 H8         -3.5920    2.2150   -0.5690 H         1    LIG75    0.0000
     28 H9         -3.4670    0.4550   -0.3740 H         1    LIG75    0.0000
     29 H10        -3.6900    1.4860    1.0520 H         1    LIG75    0.0000
     30 H11        -1.5260    8.0150    0.4660 H         1    LIG75    0.0000
@<TRIPOS>BOND
     1    1    2 2
     2    1    6 1
     3    1   20 1
     4    2    3 1
     5    2    7 1
     6    3    4 2
     7    3   10 1
     8    4    5 1
     9    4   19 1
    10    5    6 2
    11    5   21 1
    12    7    8 1
    13    8    9 1
    14    8   14 1
    15    8   15 1
    16    9   10 2
    17    9   11 1
    18   10   13 1
    19   11   12 2
    20   11   22 1
    21   12   13 1
    22   12   16 1
    23   13   23 1
    24   14   24 1
    25   14   25 1
    26   14   26 1
    27   15   27 1
    28   15   28 1
    29   15   29 1
    30   16   17 1
    31   16   18 2
    32   17   30 1
@<TRIPOS>SUBSTRUCTURE
     1    LIG75    1   GROUP 1   LIG 1
@<TRIPOS>MOLECULE
692593
   43    46    1     0     0
SMALL
USER_CHARGES


@<TRIPOS>ATOM
      1 C1         -0.1170    3.5270    2.2590 C.2       1    LIG76    0.0000
      2 C2          0.7110    2.6360    1.5590 C.2       1    LIG76    0.0000
      3 C3          2.0540    3.0040    1.3200 C.2       1    LIG76    0.0000
      4 C4          2.5380    4.2430    1.7840 C.2       1    LIG76    0.0000
      5 C5          1.6650    5.0920    2.4810 C.2       1    LIG76    0.0000
      6 N1          0.3800    4.7120    2.6940 N.2       1    LIG76    0.0000
      7 O1          0.2040    1.4400    1.1100 O.3       1    LIG76    0.0000
      8 C6          0.9920    0.4280    0.4320 C.3       1    LIG76    0.0000
      9 C7          2.3840    0.8720    0.1790 C.2       1    LIG76    0.0000
     10 C8          2.8610    2.0990    0.6160 C.2       1    LIG76    0.0000
     11 C9          3.4340    0.2320   -0.4670 C.2       1    LIG76    0.0000
     12 C10         4.5290    1.0940   -0.4100 C.2       1    LIG76    0.0000
     13 N2          4.1490    2.2050    0.2490 N.pl3     1    LIG76    0.0000
     14 C11         5.8090    0.8760   -0.9340 C.2       1    LIG76    0.0000
     15 N3          6.1270   -0.2550   -1.5810 N.am      1    LIG76    0.0000
     16 O2          6.6930    1.7510   -0.8040 O.2       1    LIG76    0.0000
     17 C12         0.9910   -0.8390    1.3080 C.3       1    LIG76    0.0000
     18 C13        -0.4440   -1.3490    1.5040 C.3       1    LIG76    0.0000
     19 N4         -1.0770   -1.6650    0.2050 N.3       1    LIG76    0.0000
     20 C14        -1.1280   -0.4520   -0.6390 C.3       1    LIG76    0.0000
     21 C15         0.2840    0.0970   -0.8970 C.3       1    LIG76    0.0000
     22 C16        -2.4300   -2.2200    0.4590 C.3       1    LIG76    0.0000
     23 C17        -3.1060   -2.8590   -0.7750 C.3       1    LIG76    0.0000
     24 F1         -4.1350   -3.6680   -0.3610 F         1    LIG76    0.0000
     25 F2         -3.6460   -1.9080   -1.6050 F         1    LIG76    0.0000
     26 F3         -2.2120   -3.6270   -1.4790 F         1    LIG76    0.0000
     27 H1         -1.0920    3.2850    2.4400 H         1    LIG76    0.0000
     28 H2          3.5060    4.5260    1.6220 H         1    LIG76    0.0000
     29 H3          1.9940    5.9940    2.8270 H         1    LIG76    0.0000
     30 H4          3.4050   -0.6920   -0.8990 H         1    LIG76    0.0000
     31 H5          4.7230    2.9660    0.4290 H         1    LIG76    0.0000
     32 H6          7.0230   -0.3700   -1.9330 H         1    LIG76    0.0000
     33 H7          5.4650   -0.9530   -1.6980 H         1    LIG76    0.0000
     34 H8          1.5800   -1.6270    0.8350 H         1    LIG76    0.0000
     35 H9          1.4220   -0.6110    2.2850 H         1    LIG76    0.0000
     36 H10        -0.4010   -2.2500    2.1180 H         1    LIG76    0.0000
     37 H11        -1.0280   -0.5940    2.0330 H         1    LIG76    0.0000
     38 H12        -1.7370    0.3170   -0.1610 H         1    LIG76    0.0000
     39 H13        -1.5590   -0.6920   -1.6090 H         1    LIG76    0.0000
     40 H14         0.2080    0.9990   -1.5060 H         1    LIG76    0.0000
     41 H15         0.8520   -0.6550   -1.4470 H         1    LIG76    0.0000
     42 H16        -2.3360   -3.0030    1.2140 H         1    LIG76    0.0000
     43 H17        -3.0800   -1.4410    0.8630 H         1    LIG76    0.0000
@<TRIPOS>BOND
     1    1    2 2
     2    1    6 1
     3    1   27 1
     4    2    3 1
     5    2    7 1
     6    3    4 2
     7    3   10 1
     8    4    5 1
     9    4   28 1
    10    5    6 2
    11    5   29 1
    12    7    8 1
    13    8    9 1
    14    8   17 1
    15    8   21 1
    16    9   10 2
    17    9   11 1
    18   10   13 1
    19   11   12 2
    20   11   30 1
    21   12   13 1
    22   12   14 1
    23   13   31 1
    24   14   15 1
    25   14   16 2
    26   15   32 1
    27   15   33 1
    28   17   18 1
    29   17   34 1
    30   17   35 1
    31   18   19 1
    32   18   36 1
    33   18   37 1
    34   19   20 1
    35   19   22 1
    36   20   21 1
    37   20   38 1
    38   20   39 1
    39   21   40 1
    40   21   41 1
    41   22   23 1
    42   22   42 1
    43   22   43 1
    44   23   24 1
    45   23   25 1
    46   23   26 1
@<TRIPOS>SUBSTRUCTURE
     1    LIG76    1   GROUP 1   LIG 1
@<TRIPOS>MOLECULE
50759950
   61    65    1     0     0
SMALL
USER_CHARGES


@<TRIPOS>ATOM
      1 C1          8.7180  -22.8590   -0.4870 C.2       1    LIG77    0.0000
      2 N1          9.9060  -22.9400    0.1640 N.am      1    LIG77    0.0000
      3 C2         10.9130  -22.0270    0.1780 C.2       1    LIG77    0.0000
      4 C3         10.7420  -20.6360    0.0090 C.2       1    LIG77    0.0000
      5 C4         11.8520  -19.7750    0.0170 C.2       1    LIG77    0.0000
      6 C5         13.1500  -20.2870    0.2100 C.2       1    LIG77    0.0000
      7 C6         14.3290  -19.4020    0.1830 C.3       1    LIG77    0.0000
      8 N2         15.2870  -19.8060   -0.8720 N.3       1    LIG77    0.0000
      9 C7         14.7460  -19.5580   -2.2280 C.3       1    LIG77    0.0000
     10 C8         15.7630  -20.0100   -3.2840 C.3       1    LIG77    0.0000
     11 O1         17.0010  -19.3360   -3.0660 O.3       1    LIG77    0.0000
     12 C9         17.5690  -19.5080   -1.7700 C.3       1    LIG77    0.0000
     13 C10        16.5560  -19.0690   -0.7010 C.3       1    LIG77    0.0000
     14 C11        13.3190  -21.6710    0.4090 C.2       1    LIG77    0.0000
     15 C12        12.2100  -22.5310    0.3910 C.2       1    LIG77    0.0000
     16 O2          8.3590  -21.8510   -1.1360 O.2       1    LIG77    0.0000
     17 C13         7.8400  -24.0370   -0.4880 C.3       1    LIG77    0.0000
     18 C14         8.3830  -25.2270   -1.3180 C.3       1    LIG77    0.0000
     19 C15         9.6500  -25.8100   -0.8050 C.2       1    LIG77    0.0000
     20 C16        10.9480  -25.7100   -1.4010 C.2       1    LIG77    0.0000
     21 C17        11.3030  -24.8690   -2.5120 C.2       1    LIG77    0.0000
     22 C18        10.6130  -23.8230   -3.1210 C.2       1    LIG77    0.0000
     23 N3         11.3780  -23.2800   -4.0780 N.pl3     1    LIG77    0.0000
     24 N4         12.5090  -23.8970   -4.1550 N.2       1    LIG77    0.0000
     25 C19        12.5070  -24.8630   -3.2250 C.2       1    LIG77    0.0000
     26 C20        11.9900  -26.4720   -0.8100 C.2       1    LIG77    0.0000
     27 C21        11.7680  -27.2310    0.3450 C.2       1    LIG77    0.0000
     28 N5         10.5400  -27.2540    0.9020 N.2       1    LIG77    0.0000
     29 C22         9.4990  -26.5810    0.3680 C.2       1    LIG77    0.0000
     30 C23        11.0130  -22.1720   -4.8790 C.3       1    LIG77    0.0000
     31 C24        10.6180  -20.8390   -4.2340 C.3       1    LIG77    0.0000
     32 C25        11.9400  -20.9580   -4.9930 C.3       1    LIG77    0.0000
     33 H1         10.0870  -23.7820    0.6090 H         1    LIG77    0.0000
     34 H2          9.8120  -20.2400   -0.1250 H         1    LIG77    0.0000
     35 H3         11.7140  -18.7740   -0.1230 H         1    LIG77    0.0000
     36 H4         14.0320  -18.3620    0.0260 H         1    LIG77    0.0000
     37 H5         14.8180  -19.4700    1.1560 H         1    LIG77    0.0000
     38 H6         14.5350  -18.4950   -2.3620 H         1    LIG77    0.0000
     39 H7         13.8250  -20.1250   -2.3770 H         1    LIG77    0.0000
     40 H8         15.3880  -19.7680   -4.2790 H         1    LIG77    0.0000
     41 H9         15.9110  -21.0890   -3.2090 H         1    LIG77    0.0000
     42 H10        18.4710  -18.9010   -1.6860 H         1    LIG77    0.0000
     43 H11        17.8270  -20.5570   -1.6180 H         1    LIG77    0.0000
     44 H12        16.3820  -17.9950   -0.7910 H         1    LIG77    0.0000
     45 H13        16.9750  -19.2810    0.2840 H         1    LIG77    0.0000
     46 H14        14.2540  -22.0550    0.5510 H         1    LIG77    0.0000
     47 H15        12.3540  -23.5330    0.5230 H         1    LIG77    0.0000
     48 H16         7.6670  -24.3520    0.5420 H         1    LIG77    0.0000
     49 H17         6.8780  -23.7500   -0.9160 H         1    LIG77    0.0000
     50 H18         7.6180  -26.0070   -1.2860 H         1    LIG77    0.0000
     51 H19         8.4530  -24.9560   -2.3650 H         1    LIG77    0.0000
     52 H20         9.6990  -23.4610   -2.8680 H         1    LIG77    0.0000
     53 H21        13.2900  -25.4990   -3.0760 H         1    LIG77    0.0000
     54 H22        12.9380  -26.4610   -1.1850 H         1    LIG77    0.0000
     55 H23        12.5330  -27.7550    0.7700 H         1    LIG77    0.0000
     56 H24         8.5870  -26.6520    0.8200 H         1    LIG77    0.0000
     57 H25        10.4610  -22.5230   -5.7510 H         1    LIG77    0.0000
     58 H26         9.7950  -20.2600   -4.6520 H         1    LIG77    0.0000
     59 H27        10.6170  -20.7330   -3.1490 H         1    LIG77    0.0000
     60 H28        12.0670  -20.4650   -5.9570 H         1    LIG77    0.0000
     61 H29        12.8860  -20.9480   -4.4530 H         1    LIG77    0.0000
@<TRIPOS>BOND
     1    1    2 1
     2    1   16 2
     3    1   17 1
     4    2    3 1
     5    2   33 1
     6    3    4 2
     7    3   15 1
     8    4    5 1
     9    4   34 1
    10    5    6 2
    11    5   35 1
    12    6    7 1
    13    6   14 1
    14    7    8 1
    15    7   36 1
    16    7   37 1
    17    8    9 1
    18    8   13 1
    19    9   10 1
    20    9   38 1
    21    9   39 1
    22   10   11 1
    23   10   40 1
    24   10   41 1
    25   11   12 1
    26   12   13 1
    27   12   42 1
    28   12   43 1
    29   13   44 1
    30   13   45 1
    31   14   15 2
    32   14   46 1
    33   15   47 1
    34   17   18 1
    35   17   48 1
    36   17   49 1
    37   18   19 1
    38   18   50 1
    39   18   51 1
    40   19   20 2
    41   19   29 1
    42   20   21 1
    43   20   26 1
    44   21   22 2
    45   21   25 1
    46   22   23 1
    47   22   52 1
    48   23   24 1
    49   23   30 1
    50   24   25 2
    51   25   53 1
    52   26   27 2
    53   26   54 1
    54   27   28 1
    55   27   55 1
    56   28   29 2
    57   29   56 1
    58   30   31 1
    59   30   32 1
    60   30   57 1
    61   31   32 1
    62   31   58 1
    63   31   59 1
    64   32   60 1
    65   32   61 1
@<TRIPOS>SUBSTRUCTURE
     1    LIG77    1   GROUP 1   LIG 1
@<TRIPOS>MOLECULE
50778745
   24    26    1     0     0
SMALL
USER_CHARGES


@<TRIPOS>ATOM
      1 C1          7.6320   -7.8330    1.0860 C.3       1    LIG78    0.0000
      2 C2          8.8650   -8.6530    0.6040 C.3       1    LIG78    0.0000
      3 C3          9.6520   -8.7480    3.0000 C.2       1    LIG78    0.0000
      4 C4          9.8240   -9.0680    1.6560 C.2       1    LIG78    0.0000
      5 C5         10.9840   -9.8130    1.4500 C.2       1    LIG78    0.0000
      6 S1         11.8790  -10.1290    2.8980 S.3       1    LIG78    0.0000
      7 C6         10.6790   -9.2540    3.7920 C.2       1    LIG78    0.0000
      8 S2         10.7700   -9.0560    5.5120 S.3       1    LIG78    0.0000
      9 C7         12.2590   -9.9820    5.9290 C.3       1    LIG78    0.0000
     10 C8          7.5840   -7.5610    2.5350 C.2       1    LIG78    0.0000
     11 C9          8.5480   -8.0020    3.4300 C.2       1    LIG78    0.0000
     12 S3          8.1990   -7.5200    5.0570 S.3       1    LIG78    0.0000
     13 N1          6.7980   -6.7560    4.5110 N.2       1    LIG78    0.0000
     14 C10         6.5910   -6.8490    3.1880 C.2       1    LIG78    0.0000
     15 C11        11.3840  -10.2470    0.2960 C.1       1    LIG78    0.0000
     16 N2         11.7390  -10.6310   -0.7260 N.1       1    LIG78    0.0000
     17 H1          6.7280   -8.3790    0.8120 H         1    LIG78    0.0000
     18 H2          7.6260   -6.8780    0.5580 H         1    LIG78    0.0000
     19 H3          9.4030   -8.0520   -0.1310 H         1    LIG78    0.0000
     20 H4          8.4970   -9.5500    0.1040 H         1    LIG78    0.0000
     21 H5         12.4250   -9.9410    7.0060 H         1    LIG78    0.0000
     22 H6         12.1400  -11.0210    5.6220 H         1    LIG78    0.0000
     23 H7         13.1170   -9.5460    5.4150 H         1    LIG78    0.0000
     24 H8          5.7870   -6.4390    2.7120 H         1    LIG78    0.0000
@<TRIPOS>BOND
     1    1    2 1
     2    1   10 1
     3    1   17 1
     4    1   18 1
     5    2    4 1
     6    2   19 1
     7    2   20 1
     8    3    4 1
     9    3    7 2
    10    3   11 1
    11    4    5 2
    12    5    6 1
    13    5   15 1
    14    6    7 1
    15    7    8 1
    16    8    9 1
    17    9   21 1
    18    9   22 1
    19    9   23 1
    20   10   11 2
    21   10   14 1
    22   11   12 1
    23   12   13 1
    24   13   14 2
    25   14   24 1
    26   15   16 3
@<TRIPOS>SUBSTRUCTURE
     1    LIG78    1   GROUP 1   LIG 1
@<TRIPOS>MOLECULE
51422083
   38    40    1     0     0
SMALL
USER_CHARGES


@<TRIPOS>ATOM
      1 C1         26.7770  -15.7510    1.2390 C.2       1    LIG79    0.0000
      2 C2         26.9950  -17.1190    1.0480 C.2       1    LIG79    0.0000
      3 N1         28.2030  -17.5460    0.6320 N.2       1    LIG79    0.0000
      4 C3         29.2350  -16.7000    0.4160 C.2       1    LIG79    0.0000
      5 C4         29.1140  -15.3020    0.6300 C.2       1    LIG79    0.0000
      6 C5         27.8140  -14.8150    0.9960 C.2       1    LIG79    0.0000
      7 C6         27.5030  -13.4200    1.0150 C.2       1    LIG79    0.0000
      8 C7         26.3000  -12.8280    1.4250 C.2       1    LIG79    0.0000
      9 C8         26.0980  -11.4410    1.3950 C.2       1    LIG79    0.0000
     10 O1         24.9960  -10.9890    1.7800 O.2       1    LIG79    0.0000
     11 O2         27.0810  -10.6010    0.9650 O.3       1    LIG79    0.0000
     12 C9         26.8500   -9.1910    0.9510 C.3       1    LIG79    0.0000
     13 C10        28.1130   -8.4900    0.4440 C.3       1    LIG79    0.0000
     14 C11        30.3130  -14.5070    0.5160 C.2       1    LIG79    0.0000
     15 C12        30.5510  -13.3960    1.3710 C.2       1    LIG79    0.0000
     16 C13        32.5250  -14.0940   -0.5370 C.2       1    LIG79    0.0000
     17 C14        31.3360  -14.8420   -0.4200 C.2       1    LIG79    0.0000
     18 C15        32.7000  -12.9950    0.3120 C.2       1    LIG79    0.0000
     19 C16        31.7340  -12.6520    1.2490 C.2       1    LIG79    0.0000
     20 N2         32.1590  -11.5780    1.9320 N.pl3     1    LIG79    0.0000
     21 C17        33.3660  -11.2130    1.4620 C.2       1    LIG79    0.0000
     22 C18        33.7380  -12.0840    0.4410 C.2       1    LIG79    0.0000
     23 H1         25.8410  -15.4570    1.5140 H         1    LIG79    0.0000
     24 H2         26.2410  -17.7880    1.2070 H         1    LIG79    0.0000
     25 H3         30.1260  -17.1160    0.1460 H         1    LIG79    0.0000
     26 H4         28.2120  -12.7740    0.6730 H         1    LIG79    0.0000
     27 H5         25.5350  -13.4040    1.7710 H         1    LIG79    0.0000
     28 H6         26.0170   -8.9540    0.2870 H         1    LIG79    0.0000
     29 H7         26.6240   -8.8360    1.9580 H         1    LIG79    0.0000
     30 H8         27.9500   -7.4120    0.4290 H         1    LIG79    0.0000
     31 H9         28.9500   -8.7210    1.1040 H         1    LIG79    0.0000
     32 H10        28.3430   -8.8350   -0.5650 H         1    LIG79    0.0000
     33 H11        29.8890  -13.1410    2.1040 H         1    LIG79    0.0000
     34 H12        33.2360  -14.3480   -1.2240 H         1    LIG79    0.0000
     35 H13        31.2130  -15.6300   -1.0570 H         1    LIG79    0.0000
     36 H14        31.6740  -11.1360    2.6470 H         1    LIG79    0.0000
     37 H15        33.9210  -10.4260    1.8010 H         1    LIG79    0.0000
     38 H16        34.6030  -12.0580   -0.1000 H         1    LIG79    0.0000
@<TRIPOS>BOND
     1    1    2 2
     2    1    6 1
     3    1   23 1
     4    2    3 1
     5    2   24 1
     6    3    4 2
     7    4    5 1
     8    4   25 1
     9    5    6 2
    10    5   14 1
    11    6    7 1
    12    7    8 2
    13    7   26 1
    14    8    9 1
    15    8   27 1
    16    9   10 2
    17    9   11 1
    18   11   12 1
    19   12   13 1
    20   12   28 1
    21   12   29 1
    22   13   30 1
    23   13   31 1
    24   13   32 1
    25   14   15 2
    26   14   17 1
    27   15   19 1
    28   15   33 1
    29   16   17 2
    30   16   18 1
    31   16   34 1
    32   17   35 1
    33   18   19 2
    34   18   22 1
    35   19   20 1
    36   20   21 1
    37   20   36 1
    38   21   22 2
    39   21   37 1
    40   22   38 1
@<TRIPOS>SUBSTRUCTURE
     1    LIG79    1   GROUP 1   LIG 1
@<TRIPOS>MOLECULE
692615
   41    44    1     0     0
SMALL
USER_CHARGES


@<TRIPOS>ATOM
      1 C1         -0.0500    1.7060   -0.3090 C.2       1    LIG80    0.0000
      2 C2         -0.5820    2.6340    0.6160 C.2       1    LIG80    0.0000
      3 O1          1.2800    1.3540   -0.2910 O.3       1    LIG80    0.0000
      4 C3          2.2160    1.8140    0.7160 C.3       1    LIG80    0.0000
      5 C4          1.6290    2.8120    1.6330 C.2       1    LIG80    0.0000
      6 C5          0.2930    3.1790    1.5680 C.2       1    LIG80    0.0000
      7 C6          2.2030    3.5290    2.6730 C.2       1    LIG80    0.0000
      8 C7          1.1920    4.3180    3.2220 C.2       1    LIG80    0.0000
      9 N1          0.0590    4.0820    2.5340 N.pl3     1    LIG80    0.0000
     10 C8          1.3000    5.2080    4.2980 C.2       1    LIG80    0.0000
     11 O2          0.2970    5.8480    4.6800 O.2       1    LIG80    0.0000
     12 N2          2.4590    5.4010    4.9450 N.am      1    LIG80    0.0000
     13 C9         -1.9450    2.9820    0.5610 C.2       1    LIG80    0.0000
     14 C10        -2.7550    2.3920   -0.4230 C.2       1    LIG80    0.0000
     15 N3         -2.2170    1.5050   -1.2970 N.2       1    LIG80    0.0000
     16 C11        -0.9070    1.1490   -1.2710 C.2       1    LIG80    0.0000
     17 C12         2.7770    0.5930    1.4820 C.3       1    LIG80    0.0000
     18 C13         1.6600   -0.2210    2.1700 C.3       1    LIG80    0.0000
     19 C14         2.2540   -1.4250    2.9180 C.3       1    LIG80    0.0000
     20 C15         3.0390   -2.3240    1.9510 C.3       1    LIG80    0.0000
     21 C16         4.1480   -1.5210    1.2560 C.3       1    LIG80    0.0000
     22 C17         3.5520   -0.3180    0.5100 C.3       1    LIG80    0.0000
     23 H1          3.0440    2.2970    0.1950 H         1    LIG80    0.0000
     24 H2          3.1750    3.4790    2.9790 H         1    LIG80    0.0000
     25 H3         -0.7960    4.5030    2.7130 H         1    LIG80    0.0000
     26 H4          2.4960    6.0260    5.6850 H         1    LIG80    0.0000
     27 H5          3.2560    4.9210    4.6730 H         1    LIG80    0.0000
     28 H6         -2.3470    3.6500    1.2200 H         1    LIG80    0.0000
     29 H7         -3.7450    2.6290   -0.4810 H         1    LIG80    0.0000
     30 H8         -0.5470    0.4780   -1.9510 H         1    LIG80    0.0000
     31 H9          3.4750    0.9430    2.2450 H         1    LIG80    0.0000
     32 H10         0.9520   -0.5790    1.4210 H         1    LIG80    0.0000
     33 H11         1.1310    0.4070    2.8860 H         1    LIG80    0.0000
     34 H12         2.9210   -1.0690    3.7050 H         1    LIG80    0.0000
     35 H13         1.4470   -2.0010    3.3700 H         1    LIG80    0.0000
     36 H14         3.4850   -3.1480    2.5070 H         1    LIG80    0.0000
     37 H15         2.3590   -2.7290    1.2000 H         1    LIG80    0.0000
     38 H16         4.8630   -1.1690    2.0010 H         1    LIG80    0.0000
     39 H17         4.6660   -2.1650    0.5440 H         1    LIG80    0.0000
     40 H18         2.8810   -0.6760   -0.2720 H         1    LIG80    0.0000
     41 H19         4.3610    0.2500    0.0490 H         1    LIG80    0.0000
@<TRIPOS>BOND
     1    1    2 1
     2    1    3 1
     3    1   16 2
     4    2    6 1
     5    2   13 2
     6    3    4 1
     7    4    5 1
     8    4   17 1
     9    4   23 1
    10    5    6 2
    11    5    7 1
    12    6    9 1
    13    7    8 2
    14    7   24 1
    15    8    9 1
    16    8   10 1
    17    9   25 1
    18   10   11 2
    19   10   12 1
    20   12   26 1
    21   12   27 1
    22   13   14 1
    23   13   28 1
    24   14   15 2
    25   14   29 1
    26   15   16 1
    27   16   30 1
    28   17   18 1
    29   17   22 1
    30   17   31 1
    31   18   19 1
    32   18   32 1
    33   18   33 1
    34   19   20 1
    35   19   34 1
    36   19   35 1
    37   20   21 1
    38   20   36 1
    39   20   37 1
    40   21   22 1
    41   21   38 1
    42   21   39 1
    43   22   40 1
    44   22   41 1
@<TRIPOS>SUBSTRUCTURE
     1    LIG80    1   GROUP 1   LIG 1
@<TRIPOS>MOLECULE
50760177
   57    60    1     0     0
SMALL
USER_CHARGES


@<TRIPOS>ATOM
      1 C1          9.1810  -22.7150   -0.3920 C.2       1    LIG81    0.0000
      2 N1         10.2170  -22.7760    0.4830 N.am      1    LIG81    0.0000
      3 C2         11.3250  -21.9910    0.4770 C.2       1    LIG81    0.0000
      4 C3         11.2860  -20.6030    0.2290 C.2       1    LIG81    0.0000
      5 C4         12.4670  -19.8410    0.2580 C.2       1    LIG81    0.0000
      6 C5         13.7030  -20.4530    0.5410 C.2       1    LIG81    0.0000
      7 C6         14.9510  -19.6650    0.5690 C.3       1    LIG81    0.0000
      8 N2         15.9170  -20.1320   -0.4520 N.3       1    LIG81    0.0000
      9 C7         17.2490  -19.5550   -0.1760 C.3       1    LIG81    0.0000
     10 C8         18.2650  -20.0560   -1.2130 C.3       1    LIG81    0.0000
     11 O1         17.8000  -19.7390   -2.5230 O.3       1    LIG81    0.0000
     12 C9         16.5080  -20.2440   -2.8490 C.3       1    LIG81    0.0000
     13 C10        15.4870  -19.7470   -1.8150 C.3       1    LIG81    0.0000
     14 C11        13.7400  -21.8370    0.8030 C.2       1    LIG81    0.0000
     15 C12        12.5590  -22.5980    0.7760 C.2       1    LIG81    0.0000
     16 O2          9.1410  -21.8930   -1.3360 O.2       1    LIG81    0.0000
     17 C13         8.0850  -23.6810   -0.2570 C.3       1    LIG81    0.0000
     18 C14         8.0320  -24.6320   -1.4750 C.3       1    LIG81    0.0000
     19 C15         7.1050  -25.7680   -1.2520 C.2       1    LIG81    0.0000
     20 C16         7.3580  -26.9060   -0.4210 C.2       1    LIG81    0.0000
     21 C17         8.5680  -27.1520    0.3230 C.2       1    LIG81    0.0000
     22 C18         9.7530  -26.4220    0.4190 C.2       1    LIG81    0.0000
     23 N3         10.5990  -27.0440    1.2530 N.pl3     1    LIG81    0.0000
     24 N4         10.0660  -28.1300    1.7020 N.2       1    LIG81    0.0000
     25 C19         8.8420  -28.2360    1.1640 C.2       1    LIG81    0.0000
     26 C20         6.3260  -27.8780   -0.3280 C.2       1    LIG81    0.0000
     27 C21         5.1210  -27.7290   -1.0260 C.2       1    LIG81    0.0000
     28 N5          4.9300  -26.6420   -1.8010 N.2       1    LIG81    0.0000
     29 C22         5.8690  -25.6810   -1.9300 C.2       1    LIG81    0.0000
     30 C23        11.8890  -26.5760    1.6040 C.3       1    LIG81    0.0000
     31 H1         10.1870  -23.4870    1.1420 H         1    LIG81    0.0000
     32 H2         10.3980  -20.1410    0.0310 H         1    LIG81    0.0000
     33 H3         12.4230  -18.8390    0.0710 H         1    LIG81    0.0000
     34 H4         14.7440  -18.6040    0.4130 H         1    LIG81    0.0000
     35 H5         15.3910  -19.7780    1.5620 H         1    LIG81    0.0000
     36 H6         17.2030  -18.4650   -0.2170 H         1    LIG81    0.0000
     37 H7         17.5850  -19.8600    0.8160 H         1    LIG81    0.0000
     38 H8         19.2280  -19.5740   -1.0440 H         1    LIG81    0.0000
     39 H9         18.3820  -21.1360   -1.1170 H         1    LIG81    0.0000
     40 H10        16.2220  -19.8960   -3.8410 H         1    LIG81    0.0000
     41 H11        16.5290  -21.3350   -2.8440 H         1    LIG81    0.0000
     42 H12        15.4040  -18.6610   -1.8910 H         1    LIG81    0.0000
     43 H13        14.5200  -20.1940   -2.0450 H         1    LIG81    0.0000
     44 H14        14.6290  -22.2920    1.0130 H         1    LIG81    0.0000
     45 H15        12.6040  -23.5990    0.9700 H         1    LIG81    0.0000
     46 H16         8.2120  -24.2450    0.6670 H         1    LIG81    0.0000
     47 H17         7.1440  -23.1330   -0.1900 H         1    LIG81    0.0000
     48 H18         7.7020  -24.0300   -2.3250 H         1    LIG81    0.0000
     49 H19         9.0160  -25.0110   -1.7470 H         1    LIG81    0.0000
     50 H20         9.9750  -25.5480   -0.0450 H         1    LIG81    0.0000
     51 H21         8.2110  -29.0110    1.3630 H         1    LIG81    0.0000
     52 H22         6.4300  -28.7140    0.2430 H         1    LIG81    0.0000
     53 H23         4.3910  -28.4370   -0.9490 H         1    LIG81    0.0000
     54 H24         5.6660  -24.8780   -2.5270 H         1    LIG81    0.0000
     55 H25        12.3640  -27.2760    2.2920 H         1    LIG81    0.0000
     56 H26        12.5060  -26.4820    0.7100 H         1    LIG81    0.0000
     57 H27        11.8070  -25.6030    2.0910 H         1    LIG81    0.0000
@<TRIPOS>BOND
     1    1    2 1
     2    1   16 2
     3    1   17 1
     4    2    3 1
     5    2   31 1
     6    3    4 2
     7    3   15 1
     8    4    5 1
     9    4   32 1
    10    5    6 2
    11    5   33 1
    12    6    7 1
    13    6   14 1
    14    7    8 1
    15    7   34 1
    16    7   35 1
    17    8    9 1
    18    8   13 1
    19    9   10 1
    20    9   36 1
    21    9   37 1
    22   10   11 1
    23   10   38 1
    24   10   39 1
    25   11   12 1
    26   12   13 1
    27   12   40 1
    28   12   41 1
    29   13   42 1
    30   13   43 1
    31   14   15 2
    32   14   44 1
    33   15   45 1
    34   17   18 1
    35   17   46 1
    36   17   47 1
    37   18   19 1
    38   18   48 1
    39   18   49 1
    40   19   20 2
    41   19   29 1
    42   20   21 1
    43   20   26 1
    44   21   22 2
    45   21   25 1
    46   22   23 1
    47   22   50 1
    48   23   24 1
    49   23   30 1
    50   24   25 2
    51   25   51 1
    52   26   27 2
    53   26   52 1
    54   27   28 1
    55   27   53 1
    56   28   29 2
    57   29   54 1
    58   30   55 1
    59   30   56 1
    60   30   57 1
@<TRIPOS>SUBSTRUCTURE
     1    LIG81    1   GROUP 1   LIG 1
@<TRIPOS>MOLECULE
51419713
   54    59    1     0     0
SMALL
USER_CHARGES


@<TRIPOS>ATOM
      1 C1         15.5490  -12.2990    1.8800 C.2       1    LIG82    0.0000
      2 N1         16.5450  -13.1790    1.8270 N.am      1    LIG82    0.0000
      3 C2         16.7370  -13.7390    0.5500 C.3       1    LIG82    0.0000
      4 C3         15.6650  -13.0730   -0.3300 C.3       1    LIG82    0.0000
      5 C4         14.8770  -12.1100    0.5910 C.3       1    LIG82    0.0000
      6 C5         14.9870  -10.6420    0.1250 C.3       1    LIG82    0.0000
      7 C6         14.2010  -10.4080   -1.1760 C.3       1    LIG82    0.0000
      8 N2         12.8320  -10.8130   -1.0170 N.pl3     1    LIG82    0.0000
      9 C7         12.6640  -12.1850   -0.6370 C.3       1    LIG82    0.0000
     10 C8         13.3840  -12.4900    0.6890 C.3       1    LIG82    0.0000
     11 O1         15.2310  -11.7010    2.9310 O.2       1    LIG82    0.0000
     12 C9          9.5940   -9.0440   -0.5970 C.2       1    LIG82    0.0000
     13 C10        10.6350   -9.9490   -0.3990 C.2       1    LIG82    0.0000
     14 C11        11.7670   -9.9600   -1.2530 C.2       1    LIG82    0.0000
     15 C12        11.7520   -9.0280   -2.3410 C.2       1    LIG82    0.0000
     16 C13        10.6620   -8.1290   -2.4710 C.2       1    LIG82    0.0000
     17 N3          9.6180   -8.1540   -1.6080 N.2       1    LIG82    0.0000
     18 N4          8.6600   -9.2040    0.3500 N.pl3     1    LIG82    0.0000
     19 C14        10.2930  -10.6530    0.7540 C.2       1    LIG82    0.0000
     20 C15         9.0600  -10.1760    1.1850 C.2       1    LIG82    0.0000
     21 C16        15.2480  -10.6630   -6.7530 C.2       1    LIG82    0.0000
     22 N5         15.4020   -9.3470   -6.5100 N.pl3     1    LIG82    0.0000
     23 C17        14.5780   -9.0440   -5.4940 C.2       1    LIG82    0.0000
     24 C18        13.9230  -10.2170   -5.1340 C.2       1    LIG82    0.0000
     25 N6         14.3460  -11.2160   -5.9200 N.2       1    LIG82    0.0000
     26 C19        12.9830  -10.2350   -4.0940 C.2       1    LIG82    0.0000
     27 C20        12.7060   -9.0340   -3.3940 C.2       1    LIG82    0.0000
     28 C21        13.3760   -7.8420   -3.7760 C.2       1    LIG82    0.0000
     29 C22        14.3170   -7.8380   -4.8250 C.2       1    LIG82    0.0000
     30 C23        16.2800   -8.4820   -7.2200 C.3       1    LIG82    0.0000
     31 H1         17.0840  -13.4110    2.5990 H         1    LIG82    0.0000
     32 H2         17.7370  -13.5080    0.1820 H         1    LIG82    0.0000
     33 H3         16.5890  -14.8200    0.5860 H         1    LIG82    0.0000
     34 H4         16.1490  -12.5310   -1.1440 H         1    LIG82    0.0000
     35 H5         15.0130  -13.8400   -0.7490 H         1    LIG82    0.0000
     36 H6         16.0330  -10.3800   -0.0370 H         1    LIG82    0.0000
     37 H7         14.5760   -9.9850    0.8950 H         1    LIG82    0.0000
     38 H8         14.2960   -9.3470   -1.4030 H         1    LIG82    0.0000
     39 H9         14.6620  -10.9830   -1.9800 H         1    LIG82    0.0000
     40 H10        11.6180  -12.4780   -0.5600 H         1    LIG82    0.0000
     41 H11        13.1060  -12.8050   -1.4180 H         1    LIG82    0.0000
     42 H12        13.2820  -13.5520    0.9180 H         1    LIG82    0.0000
     43 H13        12.9200  -11.9120    1.4890 H         1    LIG82    0.0000
     44 H14        10.6300   -7.4620   -3.2450 H         1    LIG82    0.0000
     45 H15         7.8400   -8.6920    0.4270 H         1    LIG82    0.0000
     46 H16        10.8370  -11.3800    1.2140 H         1    LIG82    0.0000
     47 H17         8.5500  -10.5010    2.0070 H         1    LIG82    0.0000
     48 H18        15.7500  -11.1790   -7.4770 H         1    LIG82    0.0000
     49 H19        12.5140  -11.1090   -3.8500 H         1    LIG82    0.0000
     50 H20        13.1870   -6.9680   -3.2840 H         1    LIG82    0.0000
     51 H21        14.7960   -6.9770   -5.0880 H         1    LIG82    0.0000
     52 H22        16.2330   -7.4630   -6.8340 H         1    LIG82    0.0000
     53 H23        17.3050   -8.8440   -7.1250 H         1    LIG82    0.0000
     54 H24        16.0040   -8.4690   -8.2750 H         1    LIG82    0.0000
@<TRIPOS>BOND
     1    1    2 1
     2    1    5 1
     3    1   11 2
     4    2    3 1
     5    2   31 1
     6    3    4 1
     7    3   32 1
     8    3   33 1
     9    4    5 1
    10    4   34 1
    11    4   35 1
    12    5    6 1
    13    5   10 1
    14    6    7 1
    15    6   36 1
    16    6   37 1
    17    7    8 1
    18    7   38 1
    19    7   39 1
    20    8    9 1
    21    8   14 1
    22    9   10 1
    23    9   40 1
    24    9   41 1
    25   10   42 1
    26   10   43 1
    27   12   13 1
    28   12   17 2
    29   12   18 1
    30   13   14 2
    31   13   19 1
    32   14   15 1
    33   15   16 2
    34   15   27 1
    35   16   17 1
    36   16   44 1
    37   18   20 1
    38   18   45 1
    39   19   20 2
    40   19   46 1
    41   20   47 1
    42   21   22 1
    43   21   25 2
    44   21   48 1
    45   22   23 1
    46   22   30 1
    47   23   24 1
    48   23   29 2
    49   24   25 1
    50   24   26 2
    51   26   27 1
    52   26   49 1
    53   27   28 2
    54   28   29 1
    55   28   50 1
    56   29   51 1
    57   30   52 1
    58   30   53 1
    59   30   54 1
@<TRIPOS>SUBSTRUCTURE
     1    LIG82    1   GROUP 1   LIG 1
@<TRIPOS>MOLECULE
51300969
   50    53    1     0     0
SMALL
USER_CHARGES


@<TRIPOS>ATOM
      1 C1          3.9050   -4.7190    0.3960 C.2       1    LIG83    0.0000
      2 C2          2.6140   -4.4490   -0.0780 C.2       1    LIG83    0.0000
      3 N1          1.7520   -5.4700   -0.2900 N.2       1    LIG83    0.0000
      4 C3          2.0850   -6.7630   -0.0700 C.2       1    LIG83    0.0000
      5 C4          3.3720   -7.1010    0.3940 C.2       1    LIG83    0.0000
      6 C5          4.3000   -6.0520    0.6500 C.2       1    LIG83    0.0000
      7 C6          5.6040   -6.2840    1.1730 C.2       1    LIG83    0.0000
      8 C7          5.7920   -7.0700    2.3330 C.2       1    LIG83    0.0000
      9 C8          7.0800   -7.3090    2.8430 C.2       1    LIG83    0.0000
     10 C9          8.2030   -6.7580    2.2030 C.2       1    LIG83    0.0000
     11 C10         8.0330   -5.9660    1.0550 C.2       1    LIG83    0.0000
     12 C11         6.7440   -5.7290    0.5470 C.2       1    LIG83    0.0000
     13 F1          9.3970   -6.9820    2.6720 F         1    LIG83    0.0000
     14 C12         3.6520   -8.4440    0.5590 C.2       1    LIG83    0.0000
     15 C13         4.6900   -9.0460   -0.0400 C.2       1    LIG83    0.0000
     16 C14         4.9870  -10.3780    0.1230 C.2       1    LIG83    0.0000
     17 N2          6.1560  -10.8350   -0.3980 N.am      1    LIG83    0.0000
     18 O1          4.2130  -11.1250    0.7670 O.2       1    LIG83    0.0000
     19 C15         6.6430  -12.1000   -0.3120 C.2       1    LIG83    0.0000
     20 C16         5.8390  -13.2540   -0.4290 C.2       1    LIG83    0.0000
     21 C17         6.4120  -14.5340   -0.3500 C.2       1    LIG83    0.0000
     22 C18         7.8010  -14.6850   -0.1630 C.2       1    LIG83    0.0000
     23 C19         8.6050  -13.5330   -0.0570 C.2       1    LIG83    0.0000
     24 C20         8.0320  -12.2530   -0.1380 C.2       1    LIG83    0.0000
     25 C21         8.4070  -16.0280   -0.0680 C.3       1    LIG83    0.0000
     26 C22         9.3570  -16.3170   -1.2500 C.3       1    LIG83    0.0000
     27 C23         9.9330  -17.6610   -1.1410 C.2       1    LIG83    0.0000
     28 N3          9.7720  -18.6440   -2.0390 N.2       1    LIG83    0.0000
     29 N4         10.4170  -19.6820   -1.6160 N.2       1    LIG83    0.0000
     30 C24        10.9910  -19.3630   -0.4480 C.2       1    LIG83    0.0000
     31 O2         10.7020  -18.0880   -0.1210 O.3       1    LIG83    0.0000
     32 H1          4.5430   -3.9390    0.5680 H         1    LIG83    0.0000
     33 H2          2.3220   -3.4880   -0.2570 H         1    LIG83    0.0000
     34 H3          1.3940   -7.4920   -0.2560 H         1    LIG83    0.0000
     35 H4          4.9890   -7.4740    2.8180 H         1    LIG83    0.0000
     36 H5          7.1950   -7.8830    3.6790 H         1    LIG83    0.0000
     37 H6          8.8450   -5.5620    0.5860 H         1    LIG83    0.0000
     38 H7          6.6440   -5.1560   -0.2930 H         1    LIG83    0.0000
     39 H8          3.0410   -8.9790    1.1300 H         1    LIG83    0.0000
     40 H9          5.2880   -8.5090   -0.6230 H         1    LIG83    0.0000
     41 H10         6.7240  -10.1790   -0.8290 H         1    LIG83    0.0000
     42 H11         4.8330  -13.1660   -0.5760 H         1    LIG83    0.0000
     43 H12         5.8150  -15.3570   -0.4320 H         1    LIG83    0.0000
     44 H13         9.6120  -13.6250    0.0810 H         1    LIG83    0.0000
     45 H14         8.6310  -11.4300   -0.0610 H         1    LIG83    0.0000
     46 H15         8.9610  -16.0970    0.8710 H         1    LIG83    0.0000
     47 H16         7.6260  -16.7920   -0.0570 H         1    LIG83    0.0000
     48 H17         8.8030  -16.2420   -2.1880 H         1    LIG83    0.0000
     49 H18        10.1730  -15.5940   -1.2600 H         1    LIG83    0.0000
     50 H19        11.5640  -19.9940    0.1130 H         1    LIG83    0.0000
@<TRIPOS>BOND
     1    1    2 2
     2    1    6 1
     3    1   32 1
     4    2    3 1
     5    2   33 1
     6    3    4 2
     7    4    5 1
     8    4   34 1
     9    5    6 2
    10    5   14 1
    11    6    7 1
    12    7    8 2
    13    7   12 1
    14    8    9 1
    15    8   35 1
    16    9   10 2
    17    9   36 1
    18   10   11 1
    19   10   13 1
    20   11   12 2
    21   11   37 1
    22   12   38 1
    23   14   15 2
    24   14   39 1
    25   15   16 1
    26   15   40 1
    27   16   17 1
    28   16   18 2
    29   17   19 1
    30   17   41 1
    31   19   20 2
    32   19   24 1
    33   20   21 1
    34   20   42 1
    35   21   22 2
    36   21   43 1
    37   22   23 1
    38   22   25 1
    39   23   24 2
    40   23   44 1
    41   24   45 1
    42   25   26 1
    43   25   46 1
    44   25   47 1
    45   26   27 1
    46   26   48 1
    47   26   49 1
    48   27   28 2
    49   27   31 1
    50   28   29 1
    51   29   30 2
    52   30   31 1
    53   30   50 1
@<TRIPOS>SUBSTRUCTURE
     1    LIG83    1   GROUP 1   LIG 1
@<TRIPOS>MOLECULE
51300971
   50    53    1     0     0
SMALL
USER_CHARGES


@<TRIPOS>ATOM
      1 C1          3.9050   -4.7190    0.3960 C.2       1    LIG84    0.0000
      2 C2          2.6140   -4.4490   -0.0780 C.2       1    LIG84    0.0000
      3 N1          1.7520   -5.4700   -0.2900 N.2       1    LIG84    0.0000
      4 C3          2.0850   -6.7630   -0.0700 C.2       1    LIG84    0.0000
      5 C4          3.3720   -7.1010    0.3940 C.2       1    LIG84    0.0000
      6 C5          4.3000   -6.0520    0.6500 C.2       1    LIG84    0.0000
      7 C6          5.6040   -6.2840    1.1730 C.2       1    LIG84    0.0000
      8 C7          5.7920   -7.0700    2.3330 C.2       1    LIG84    0.0000
      9 C8          7.0800   -7.3090    2.8430 C.2       1    LIG84    0.0000
     10 C9          8.2030   -6.7580    2.2030 C.2       1    LIG84    0.0000
     11 C10         8.0330   -5.9660    1.0550 C.2       1    LIG84    0.0000
     12 C11         6.7440   -5.7290    0.5470 C.2       1    LIG84    0.0000
     13 F1          9.3970   -6.9820    2.6720 F         1    LIG84    0.0000
     14 C12         3.6520   -8.4440    0.5590 C.2       1    LIG84    0.0000
     15 C13         4.6900   -9.0460   -0.0400 C.2       1    LIG84    0.0000
     16 C14         4.9870  -10.3780    0.1230 C.2       1    LIG84    0.0000
     17 N2          6.1560  -10.8350   -0.3980 N.am      1    LIG84    0.0000
     18 O1          4.2130  -11.1250    0.7670 O.2       1    LIG84    0.0000
     19 C15         6.6430  -12.1000   -0.3120 C.2       1    LIG84    0.0000
     20 C16         5.8390  -13.2540   -0.4290 C.2       1    LIG84    0.0000
     21 C17         6.4120  -14.5340   -0.3500 C.2       1    LIG84    0.0000
     22 C18         7.8010  -14.6850   -0.1630 C.2       1    LIG84    0.0000
     23 C19         8.6050  -13.5330   -0.0570 C.2       1    LIG84    0.0000
     24 C20         8.0320  -12.2530   -0.1380 C.2       1    LIG84    0.0000
     25 C21         8.4070  -16.0280   -0.0680 C.3       1    LIG84    0.0000
     26 C22         9.3570  -16.3170   -1.2500 C.3       1    LIG84    0.0000
     27 C23         9.9330  -17.6610   -1.1410 C.2       1    LIG84    0.0000
     28 N3          9.7720  -18.6440   -2.0390 N.2       1    LIG84    0.0000
     29 N4         10.4170  -19.6820   -1.6160 N.2       1    LIG84    0.0000
     30 C24        10.9910  -19.3630   -0.4480 C.2       1    LIG84    0.0000
     31 O2         10.7020  -18.0880   -0.1210 O.3       1    LIG84    0.0000
     32 H1          4.5430   -3.9390    0.5680 H         1    LIG84    0.0000
     33 H2          2.3220   -3.4880   -0.2570 H         1    LIG84    0.0000
     34 H3          1.3940   -7.4920   -0.2560 H         1    LIG84    0.0000
     35 H4          4.9890   -7.4740    2.8180 H         1    LIG84    0.0000
     36 H5          7.1950   -7.8830    3.6790 H         1    LIG84    0.0000
     37 H6          8.8450   -5.5620    0.5860 H         1    LIG84    0.0000
     38 H7          6.6440   -5.1560   -0.2930 H         1    LIG84    0.0000
     39 H8          3.0410   -8.9790    1.1300 H         1    LIG84    0.0000
     40 H9          5.2880   -8.5090   -0.6230 H         1    LIG84    0.0000
     41 H10         6.7240  -10.1790   -0.8290 H         1    LIG84    0.0000
     42 H11         4.8330  -13.1660   -0.5760 H         1    LIG84    0.0000
     43 H12         5.8150  -15.3570   -0.4320 H         1    LIG84    0.0000
     44 H13         9.6120  -13.6250    0.0810 H         1    LIG84    0.0000
     45 H14         8.6310  -11.4300   -0.0610 H         1    LIG84    0.0000
     46 H15         8.9610  -16.0970    0.8710 H         1    LIG84    0.0000
     47 H16         7.6260  -16.7920   -0.0570 H         1    LIG84    0.0000
     48 H17         8.8030  -16.2420   -2.1880 H         1    LIG84    0.0000
     49 H18        10.1730  -15.5940   -1.2600 H         1    LIG84    0.0000
     50 H19        11.5640  -19.9940    0.1130 H         1    LIG84    0.0000
@<TRIPOS>BOND
     1    1    2 2
     2    1    6 1
     3    1   32 1
     4    2    3 1
     5    2   33 1
     6    3    4 2
     7    4    5 1
     8    4   34 1
     9    5    6 2
    10    5   14 1
    11    6    7 1
    12    7    8 2
    13    7   12 1
    14    8    9 1
    15    8   35 1
    16    9   10 2
    17    9   36 1
    18   10   11 1
    19   10   13 1
    20   11   12 2
    21   11   37 1
    22   12   38 1
    23   14   15 2
    24   14   39 1
    25   15   16 1
    26   15   40 1
    27   16   17 1
    28   16   18 2
    29   17   19 1
    30   17   41 1
    31   19   20 2
    32   19   24 1
    33   20   21 1
    34   20   42 1
    35   21   22 2
    36   21   43 1
    37   22   23 1
    38   22   25 1
    39   23   24 2
    40   23   44 1
    41   24   45 1
    42   25   26 1
    43   25   46 1
    44   25   47 1
    45   26   27 1
    46   26   48 1
    47   26   49 1
    48   27   28 2
    49   27   31 1
    50   28   29 1
    51   29   30 2
    52   30   31 1
    53   30   50 1
@<TRIPOS>SUBSTRUCTURE
     1    LIG84    1   GROUP 1   LIG 1
@<TRIPOS>MOLECULE
50778732
   37    40    1     0     0
SMALL
USER_CHARGES


@<TRIPOS>ATOM
      1 N1         13.5910   -8.1130    0.8840 N.2       1    LIG85    0.0000
      2 C1         11.7670   -9.1680    0.3700 C.2       1    LIG85    0.0000
      3 S1         14.9680    1.1060    2.3430 S.3       1    LIG85    0.0000
      4 C2         13.7970   -3.7920    1.4850 C.2       1    LIG85    0.0000
      5 C3         13.0840   -1.4590    1.6230 C.2       1    LIG85    0.0000
      6 O1         14.9580   -5.7890    1.4770 O.2       1    LIG85    0.0000
      7 S2         12.2520    0.0620    1.6300 S.3       1    LIG85    0.0000
      8 C4         17.3640    0.3230    2.7560 C.2       1    LIG85    0.0000
      9 C5         14.4400   -1.6070    1.8940 C.2       1    LIG85    0.0000
     10 N2         12.7310   -5.8470    1.0000 N.am      1    LIG85    0.0000
     11 C6         13.8700   -5.1860    1.3240 C.2       1    LIG85    0.0000
     12 C7         17.2570   -2.2010    2.4180 C.3       1    LIG85    0.0000
     13 C8         16.2580   -3.3410    2.0630 C.3       1    LIG85    0.0000
     14 S3         12.2920   -2.9580    1.2690 S.3       1    LIG85    0.0000
     15 C9         16.6770   -0.8460    2.4640 C.2       1    LIG85    0.0000
     16 C10        11.4410   -7.8280    0.4770 C.2       1    LIG85    0.0000
     17 C11        12.6220   -7.1810    0.8050 C.2       1    LIG85    0.0000
     18 C12        14.8530   -2.9350    1.8160 C.2       1    LIG85    0.0000
     19 C13        10.5600   -0.3850    1.2020 C.3       1    LIG85    0.0000
     20 N3         16.5820    1.4130    2.7250 N.2       1    LIG85    0.0000
     21 C14        15.3380   -0.5810    2.2130 C.2       1    LIG85    0.0000
     22 N4         13.0810   -9.2780    0.6260 N.pl3     1    LIG85    0.0000
     23 C15        13.8330  -10.4790    0.6230 C.3       1    LIG85    0.0000
     24 H1         11.1270   -9.9290    0.1390 H         1    LIG85    0.0000
     25 H2         18.3610    0.3530    2.9710 H         1    LIG85    0.0000
     26 H3         11.9250   -5.3190    0.8990 H         1    LIG85    0.0000
     27 H4         18.0590   -2.2050    1.6790 H         1    LIG85    0.0000
     28 H5         17.6940   -2.4200    3.3940 H         1    LIG85    0.0000
     29 H6         16.6290   -3.8440    1.1690 H         1    LIG85    0.0000
     30 H7         16.2660   -4.0610    2.8830 H         1    LIG85    0.0000
     31 H8         10.5230   -7.4060    0.3420 H         1    LIG85    0.0000
     32 H9          9.9460    0.5160    1.1740 H         1    LIG85    0.0000
     33 H10        10.5420   -0.8630    0.2220 H         1    LIG85    0.0000
     34 H11        10.1600   -1.0700    1.9500 H         1    LIG85    0.0000
     35 H12        13.2040  -11.3380    0.3840 H         1    LIG85    0.0000
     36 H13        14.6280  -10.4030   -0.1200 H         1    LIG85    0.0000
     37 H14        14.2780  -10.6270    1.6070 H         1    LIG85    0.0000
@<TRIPOS>BOND
     1    1   17 2
     2    1   22 1
     3    2   16 2
     4    2   22 1
     5    2   24 1
     6    3   20 1
     7    3   21 1
     8    4   11 1
     9    4   14 1
    10    4   18 2
    11    5    7 1
    12    5    9 2
    13    5   14 1
    14    6   11 2
    15    7   19 1
    16    8   15 1
    17    8   20 2
    18    8   25 1
    19    9   18 1
    20    9   21 1
    21   10   11 1
    22   10   17 1
    23   10   26 1
    24   12   13 1
    25   12   15 1
    26   12   27 1
    27   12   28 1
    28   13   18 1
    29   13   29 1
    30   13   30 1
    31   15   21 2
    32   16   17 1
    33   16   31 1
    34   19   32 1
    35   19   33 1
    36   19   34 1
    37   22   23 1
    38   23   35 1
    39   23   36 1
    40   23   37 1
@<TRIPOS>SUBSTRUCTURE
     1    LIG85    1   GROUP 1   LIG 1
@<TRIPOS>MOLECULE
51419716
   51    56    1     0     0
SMALL
USER_CHARGES


@<TRIPOS>ATOM
      1 C1         15.9490  -12.8430    1.8020 C.2       1    LIG86    0.0000
      2 N1         16.2800  -13.9650    1.1670 N.am      1    LIG86    0.0000
      3 C2         15.3000  -14.4150    0.2630 C.3       1    LIG86    0.0000
      4 C3         14.1440  -13.4140    0.4210 C.3       1    LIG86    0.0000
      5 C4         14.6290  -12.3260    1.4100 C.3       1    LIG86    0.0000
      6 C5         13.6520  -12.2100    2.6010 C.3       1    LIG86    0.0000
      7 C6         14.0060  -11.0320    3.5260 C.3       1    LIG86    0.0000
      8 N2         14.0690   -9.8060    2.7770 N.pl3     1    LIG86    0.0000
      9 C7         15.0130   -9.8160    1.6990 C.3       1    LIG86    0.0000
     10 C8         14.7180  -10.9560    0.7040 C.3       1    LIG86    0.0000
     11 O1         16.7160  -12.2990    2.6250 O.2       1    LIG86    0.0000
     12 C9         11.5960   -7.0940    2.3470 C.2       1    LIG86    0.0000
     13 C10        12.5790   -8.0330    2.0470 C.2       1    LIG86    0.0000
     14 C11        13.2640   -8.7210    3.0820 C.2       1    LIG86    0.0000
     15 C12        12.9810   -8.3250    4.4350 C.2       1    LIG86    0.0000
     16 C13        11.9310   -7.3890    4.6460 C.2       1    LIG86    0.0000
     17 N3         11.2750   -6.7970    3.6200 N.2       1    LIG86    0.0000
     18 N4         11.0530   -6.6150    1.2210 N.pl3     1    LIG86    0.0000
     19 C14        12.5810   -8.1200    0.6560 C.2       1    LIG86    0.0000
     20 C15        11.6360   -7.2210    0.1760 C.2       1    LIG86    0.0000
     21 C16        14.0280   -9.1620    7.9550 C.2       1    LIG86    0.0000
     22 C17        13.2120   -8.7880    6.8790 C.2       1    LIG86    0.0000
     23 C18        13.7690   -8.7210    5.5740 C.2       1    LIG86    0.0000
     24 C19        15.1550   -9.0070    5.4400 C.2       1    LIG86    0.0000
     25 C20        15.9330   -9.3780    6.5520 C.2       1    LIG86    0.0000
     26 N5         15.3310   -9.4420    7.7630 N.pl3     1    LIG86    0.0000
     27 N6         13.6920   -9.3010    9.2480 N.2       1    LIG86    0.0000
     28 C21        14.8180   -9.6770    9.8790 C.2       1    LIG86    0.0000
     29 C22        15.8510   -9.7670    8.9530 C.2       1    LIG86    0.0000
     30 H1         17.1250  -14.4180    1.3060 H         1    LIG86    0.0000
     31 H2         15.6910  -14.3980   -0.7550 H         1    LIG86    0.0000
     32 H3         14.9750  -15.4230    0.5260 H         1    LIG86    0.0000
     33 H4         13.2690  -13.9340    0.8150 H         1    LIG86    0.0000
     34 H5         13.8930  -12.9830   -0.5500 H         1    LIG86    0.0000
     35 H6         13.6550  -13.1350    3.1810 H         1    LIG86    0.0000
     36 H7         12.6450  -12.0470    2.2150 H         1    LIG86    0.0000
     37 H8         13.2430  -11.0010    4.3050 H         1    LIG86    0.0000
     38 H9         14.9700  -11.2330    3.9930 H         1    LIG86    0.0000
     39 H10        16.0050   -9.9760    2.1220 H         1    LIG86    0.0000
     40 H11        15.0520   -8.8650    1.1690 H         1    LIG86    0.0000
     41 H12        15.4950  -10.9760   -0.0620 H         1    LIG86    0.0000
     42 H13        13.7620  -10.7630    0.2200 H         1    LIG86    0.0000
     43 H14        11.6820   -7.0820    5.5870 H         1    LIG86    0.0000
     44 H15        10.3470   -5.9530    1.1720 H         1    LIG86    0.0000
     45 H16        13.1600   -8.7230    0.0770 H         1    LIG86    0.0000
     46 H17        11.4120   -7.0590   -0.8060 H         1    LIG86    0.0000
     47 H18        12.2240   -8.6000    7.0510 H         1    LIG86    0.0000
     48 H19        15.6190   -8.9290    4.5350 H         1    LIG86    0.0000
     49 H20        16.9270   -9.5850    6.4430 H         1    LIG86    0.0000
     50 H21        14.9010   -9.8650   10.8780 H         1    LIG86    0.0000
     51 H22        16.8180  -10.0310    9.1480 H         1    LIG86    0.0000
@<TRIPOS>BOND
     1    1    2 1
     2    1    5 1
     3    1   11 2
     4    2    3 1
     5    2   30 1
     6    3    4 1
     7    3   31 1
     8    3   32 1
     9    4    5 1
    10    4   33 1
    11    4   34 1
    12    5    6 1
    13    5   10 1
    14    6    7 1
    15    6   35 1
    16    6   36 1
    17    7    8 1
    18    7   37 1
    19    7   38 1
    20    8    9 1
    21    8   14 1
    22    9   10 1
    23    9   39 1
    24    9   40 1
    25   10   41 1
    26   10   42 1
    27   12   13 1
    28   12   17 2
    29   12   18 1
    30   13   14 2
    31   13   19 1
    32   14   15 1
    33   15   16 2
    34   15   23 1
    35   16   17 1
    36   16   43 1
    37   18   20 1
    38   18   44 1
    39   19   20 2
    40   19   45 1
    41   20   46 1
    42   21   22 1
    43   21   26 1
    44   21   27 2
    45   22   23 2
    46   22   47 1
    47   23   24 1
    48   24   25 2
    49   24   48 1
    50   25   26 1
    51   25   49 1
    52   26   29 1
    53   27   28 1
    54   28   29 2
    55   28   50 1
    56   29   51 1
@<TRIPOS>SUBSTRUCTURE
     1    LIG86    1   GROUP 1   LIG 1
@<TRIPOS>MOLECULE
51388392
   60    63    1     0     0
SMALL
USER_CHARGES


@<TRIPOS>ATOM
      1 C1          5.3020  -12.2250   -1.6140 C.3       1    LIG87    0.0000
      2 C2          5.9090  -11.9030   -0.2360 C.3       1    LIG87    0.0000
      3 C3          6.6120  -13.0780    0.3300 C.2       1    LIG87    0.0000
      4 C4          7.9460  -13.2240    0.7340 C.2       1    LIG87    0.0000
      5 C5          9.0590  -12.3640    0.7470 C.2       1    LIG87    0.0000
      6 N1         10.2160  -12.8530    1.2620 N.2       1    LIG87    0.0000
      7 C6         10.3320  -14.1150    1.7430 C.2       1    LIG87    0.0000
      8 N2          9.2450  -14.9200    1.7090 N.2       1    LIG87    0.0000
      9 N3          8.1200  -14.4700    1.2250 N.pl3     1    LIG87    0.0000
     10 C7          6.9660  -15.1480    1.1460 C.2       1    LIG87    0.0000
     11 C8          6.0100  -14.3060    0.5950 C.2       1    LIG87    0.0000
     12 N4          9.0090  -11.1010    0.2750 N.pl3     1    LIG87    0.0000
     13 C9         10.0660  -10.1560    0.3830 C.3       1    LIG87    0.0000
     14 C10         9.7010   -8.9180   -0.4570 C.3       1    LIG87    0.0000
     15 C11         8.4260   -8.2410    0.0760 C.3       1    LIG87    0.0000
     16 C12         8.5970   -7.8430    1.5570 C.3       1    LIG87    0.0000
     17 C13         9.0010   -9.0660    2.4040 C.3       1    LIG87    0.0000
     18 C14        10.2780   -9.7150    1.8450 C.3       1    LIG87    0.0000
     19 N5          7.4020   -7.1880    2.1430 N.3       1    LIG87    0.0000
     20 C15         6.1420   -7.9470    1.9790 C.3       1    LIG87    0.0000
     21 C16         5.0120   -7.2460    2.7470 C.3       1    LIG87    0.0000
     22 N6          4.8960   -5.8990    2.2820 N.am      1    LIG87    0.0000
     23 C17         6.0870   -5.1150    2.3910 C.3       1    LIG87    0.0000
     24 C18         7.2270   -5.8130    1.6320 C.3       1    LIG87    0.0000
     25 C19         3.7440   -5.3870    1.7540 C.2       1    LIG87    0.0000
     26 O1          3.7050   -4.2010    1.3570 O.2       1    LIG87    0.0000
     27 C20         2.5160   -6.1770    1.6220 C.3       1    LIG87    0.0000
     28 C21         4.8070  -11.4050    0.7170 C.3       1    LIG87    0.0000
     29 H1          4.8410  -11.3270   -2.0250 H         1    LIG87    0.0000
     30 H2          6.0850  -12.5620   -2.2960 H         1    LIG87    0.0000
     31 H3          4.5420  -13.0030   -1.5250 H         1    LIG87    0.0000
     32 H4          6.5970  -11.0780   -0.3780 H         1    LIG87    0.0000
     33 H5         11.2190  -14.4490    2.1210 H         1    LIG87    0.0000
     34 H6          6.8130  -16.1110    1.4480 H         1    LIG87    0.0000
     35 H7          5.0330  -14.5430    0.4240 H         1    LIG87    0.0000
     36 H8          8.2000  -10.8050   -0.1540 H         1    LIG87    0.0000
     37 H9         10.9900  -10.5840   -0.0090 H         1    LIG87    0.0000
     38 H10         9.5420   -9.2180   -1.4930 H         1    LIG87    0.0000
     39 H11        10.5260   -8.2050   -0.4230 H         1    LIG87    0.0000
     40 H12         8.2270   -7.3520   -0.5210 H         1    LIG87    0.0000
     41 H13         7.5900   -8.9310   -0.0300 H         1    LIG87    0.0000
     42 H14         9.4270   -7.1360    1.6150 H         1    LIG87    0.0000
     43 H15         8.2030   -9.8070    2.4040 H         1    LIG87    0.0000
     44 H16         9.1850   -8.7460    3.4300 H         1    LIG87    0.0000
     45 H17        10.5420  -10.5750    2.4590 H         1    LIG87    0.0000
     46 H18        11.0960   -8.9950    1.8880 H         1    LIG87    0.0000
     47 H19         6.2490   -8.9560    2.3740 H         1    LIG87    0.0000
     48 H20         5.8630   -8.0050    0.9260 H         1    LIG87    0.0000
     49 H21         4.0970   -7.8240    2.6170 H         1    LIG87    0.0000
     50 H22         5.2620   -7.2350    3.8090 H         1    LIG87    0.0000
     51 H23         6.3630   -5.0320    3.4430 H         1    LIG87    0.0000
     52 H24         5.9670   -4.1080    1.9880 H         1    LIG87    0.0000
     53 H25         8.1440   -5.2420    1.7820 H         1    LIG87    0.0000
     54 H26         6.9870   -5.8290    0.5680 H         1    LIG87    0.0000
     55 H27         1.7250   -5.5690    1.1820 H         1    LIG87    0.0000
     56 H28         2.7020   -7.0370    0.9780 H         1    LIG87    0.0000
     57 H29         2.1950   -6.5190    2.6060 H         1    LIG87    0.0000
     58 H30         5.2370  -11.1640    1.6900 H         1    LIG87    0.0000
     59 H31         4.3490  -10.5060    0.3030 H         1    LIG87    0.0000
     60 H32         4.0380  -12.1690    0.8430 H         1    LIG87    0.0000
@<TRIPOS>BOND
     1    1    2 1
     2    1   29 1
     3    1   30 1
     4    1   31 1
     5    2    3 1
     6    2   28 1
     7    2   32 1
     8    3    4 2
     9    3   11 1
    10    4    5 1
    11    4    9 1
    12    5    6 2
    13    5   12 1
    14    6    7 1
    15    7    8 2
    16    7   33 1
    17    8    9 1
    18    9   10 1
    19   10   11 2
    20   10   34 1
    21   11   35 1
    22   13   12 1
    23   12   36 1
    24   13   14 1
    25   13   18 1
    26   13   37 1
    27   14   15 1
    28   14   38 1
    29   14   39 1
    30   15   16 1
    31   15   40 1
    32   15   41 1
    33   16   17 1
    34   16   19 1
    35   16   42 1
    36   17   18 1
    37   17   43 1
    38   17   44 1
    39   18   45 1
    40   18   46 1
    41   19   20 1
    42   19   24 1
    43   20   21 1
    44   20   47 1
    45   20   48 1
    46   21   22 1
    47   21   49 1
    48   21   50 1
    49   22   23 1
    50   22   25 1
    51   23   24 1
    52   23   51 1
    53   23   52 1
    54   24   53 1
    55   24   54 1
    56   25   26 2
    57   25   27 1
    58   27   55 1
    59   27   56 1
    60   27   57 1
    61   28   58 1
    62   28   59 1
    63   28   60 1
@<TRIPOS>SUBSTRUCTURE
     1    LIG87    1   GROUP 1   LIG 1
@<TRIPOS>MOLECULE
692613
   43    46    1     0     0
SMALL
USER_CHARGES


@<TRIPOS>ATOM
      1 C1         -0.5440    1.3250   -0.2840 C.2       1    LIG88    0.0000
      2 C2         -1.0520    2.2070    0.6950 C.2       1    LIG88    0.0000
      3 O1          0.7980    1.0490   -0.3660 O.3       1    LIG88    0.0000
      4 C3          1.7600    1.4380    0.6450 C.3       1    LIG88    0.0000
      5 C4          1.2110    2.4380    1.6010 C.2       1    LIG88    0.0000
      6 C5         -0.1380    2.7650    1.6020 C.2       1    LIG88    0.0000
      7 C6          1.8060    3.1650    2.6340 C.2       1    LIG88    0.0000
      8 C7          0.7860    3.9120    3.2370 C.2       1    LIG88    0.0000
      9 N1         -0.3620    3.6440    2.5900 N.pl3     1    LIG88    0.0000
     10 C8          0.8620    4.7950    4.3280 C.2       1    LIG88    0.0000
     11 O2         -0.1730    5.3760    4.7210 O.2       1    LIG88    0.0000
     12 N2          2.0030    5.0480    4.9860 N.am      1    LIG88    0.0000
     13 C9         -2.4280    2.5020    0.7310 C.2       1    LIG88    0.0000
     14 C10        -3.2740    1.9010   -0.2140 C.2       1    LIG88    0.0000
     15 N3         -2.7580    1.0580   -1.1420 N.2       1    LIG88    0.0000
     16 C11        -1.4360    0.7560   -1.2070 C.2       1    LIG88    0.0000
     17 C12         2.1620    0.1480    1.3840 C.3       1    LIG88    0.0000
     18 C13         2.9810    1.9830   -0.1180 C.3       1    LIG88    0.0000
     19 C14         3.1370    3.1600    2.9800 C.2       1    LIG88    0.0000
     20 C15         3.5940    2.2500    3.8540 C.2       1    LIG88    0.0000
     21 C16         4.9680    2.2160    4.2880 C.3       1    LIG88    0.0000
     22 O3          5.6780    3.4060    3.9450 O.3       1    LIG88    0.0000
     23 C17         5.4900    3.8590    2.6110 C.3       1    LIG88    0.0000
     24 C18         4.0010    4.1810    2.4180 C.3       1    LIG88    0.0000
     25 H1         -1.2240    4.0300    2.8120 H         1    LIG88    0.0000
     26 H2          1.9950    5.6660    5.7330 H         1    LIG88    0.0000
     27 H3          2.8290    4.6170    4.7220 H         1    LIG88    0.0000
     28 H4         -2.8140    3.1390    1.4290 H         1    LIG88    0.0000
     29 H5         -4.2750    2.0990   -0.2050 H         1    LIG88    0.0000
     30 H6         -1.0920    0.1210   -1.9270 H         1    LIG88    0.0000
     31 H7          2.9830    0.3390    2.0730 H         1    LIG88    0.0000
     32 H8          1.3090   -0.2470    1.9390 H         1    LIG88    0.0000
     33 H9          2.4820   -0.5990    0.6570 H         1    LIG88    0.0000
     34 H10         3.8260    2.1140    0.5570 H         1    LIG88    0.0000
     35 H11         3.2670    1.2740   -0.8960 H         1    LIG88    0.0000
     36 H12         2.7360    2.9370   -0.5860 H         1    LIG88    0.0000
     37 H13         2.9790    1.5630    4.2220 H         1    LIG88    0.0000
     38 H14         5.4600    1.3560    3.8300 H         1    LIG88    0.0000
     39 H15         4.9960    2.1000    5.3710 H         1    LIG88    0.0000
     40 H16         5.7960    3.0800    1.9100 H         1    LIG88    0.0000
     41 H17         6.0870    4.7540    2.4370 H         1    LIG88    0.0000
     42 H18         3.8150    4.2900    1.3480 H         1    LIG88    0.0000
     43 H19         3.7840    5.1340    2.9030 H         1    LIG88    0.0000
@<TRIPOS>BOND
     1    1    2 1
     2    1    3 1
     3    1   16 2
     4    2    6 1
     5    2   13 2
     6    3    4 1
     7    4    5 1
     8    4   17 1
     9    4   18 1
    10    5    6 2
    11    5    7 1
    12    6    9 1
    13    7    8 2
    14    7   19 1
    15    8    9 1
    16    8   10 1
    17    9   25 1
    18   10   11 2
    19   10   12 1
    20   12   26 1
    21   12   27 1
    22   13   14 1
    23   13   28 1
    24   14   15 2
    25   14   29 1
    26   15   16 1
    27   16   30 1
    28   17   31 1
    29   17   32 1
    30   17   33 1
    31   18   34 1
    32   18   35 1
    33   18   36 1
    34   19   20 2
    35   19   24 1
    36   20   21 1
    37   20   37 1
    38   21   22 1
    39   21   38 1
    40   21   39 1
    41   22   23 1
    42   23   24 1
    43   23   40 1
    44   23   41 1
    45   24   42 1
    46   24   43 1
@<TRIPOS>SUBSTRUCTURE
     1    LIG88    1   GROUP 1   LIG 1
@<TRIPOS>MOLECULE
50778310
   27    29    1     0     0
SMALL
USER_CHARGES


@<TRIPOS>ATOM
      1 C1          7.0610   -5.2500    0.9360 C.3       1    LIG89    0.0000
      2 C2          8.3460   -6.0110    0.4860 C.3       1    LIG89    0.0000
      3 C3          9.0500   -6.1590    2.9050 C.2       1    LIG89    0.0000
      4 C4          9.2870   -6.4290    1.5590 C.2       1    LIG89    0.0000
      5 C5         10.4890   -7.1210    1.3780 C.2       1    LIG89    0.0000
      6 S1         11.3260   -7.4350    2.8650 S.3       1    LIG89    0.0000
      7 C6         10.0580   -6.6370    3.7330 C.2       1    LIG89    0.0000
      8 S2         10.0540   -6.4550    5.4580 S.3       1    LIG89    0.0000
      9 C7         11.5990   -7.2340    5.9590 C.3       1    LIG89    0.0000
     10 C8         11.0230   -7.5470    0.1520 C.2       1    LIG89    0.0000
     11 O1         10.4480   -7.3390   -0.9380 O.2       1    LIG89    0.0000
     12 N1         12.1910   -8.2030    0.1250 N.am      1    LIG89    0.0000
     13 C9          6.9570   -5.0420    2.3900 C.2       1    LIG89    0.0000
     14 C10         7.8980   -5.4740    3.3040 C.2       1    LIG89    0.0000
     15 O2          7.4840   -5.1160    4.5410 O.3       1    LIG89    0.0000
     16 N2          6.3390   -4.4870    4.4340 N.2       1    LIG89    0.0000
     17 C11         5.9770   -4.4170    3.1410 C.2       1    LIG89    0.0000
     18 H1          6.1880   -5.8140    0.6060 H         1    LIG89    0.0000
     19 H2          7.0440   -4.2750    0.4470 H         1    LIG89    0.0000
     20 H3          8.8890   -5.3680   -0.2090 H         1    LIG89    0.0000
     21 H4          8.0320   -6.9030   -0.0580 H         1    LIG89    0.0000
     22 H5         11.6970   -7.1740    7.0420 H         1    LIG89    0.0000
     23 H6         11.5990   -8.2810    5.6540 H         1    LIG89    0.0000
     24 H7         12.4380   -6.7180    5.4920 H         1    LIG89    0.0000
     25 H8         12.5560   -8.4960   -0.7240 H         1    LIG89    0.0000
     26 H9         12.6680   -8.3840    0.9490 H         1    LIG89    0.0000
     27 H10         5.1300   -3.9810    2.7780 H         1    LIG89    0.0000
@<TRIPOS>BOND
     1    1    2 1
     2    1   13 1
     3    1   18 1
     4    1   19 1
     5    2    4 1
     6    2   20 1
     7    2   21 1
     8    3    4 1
     9    3    7 2
    10    3   14 1
    11    4    5 2
    12    5    6 1
    13    5   10 1
    14    6    7 1
    15    7    8 1
    16    8    9 1
    17    9   22 1
    18    9   23 1
    19    9   24 1
    20   10   11 2
    21   10   12 1
    22   12   25 1
    23   12   26 1
    24   13   14 2
    25   13   17 1
    26   14   15 1
    27   15   16 1
    28   16   17 2
    29   17   27 1
@<TRIPOS>SUBSTRUCTURE
     1    LIG89    1   GROUP 1   LIG 1
@<TRIPOS>MOLECULE
51419712
   50    55    1     0     0
SMALL
USER_CHARGES


@<TRIPOS>ATOM
      1 C1         15.8470  -12.5330    0.9490 C.2       1    LIG90    0.0000
      2 N1         15.8090  -13.5660    0.1100 N.am      1    LIG90    0.0000
      3 C2         14.8060  -13.4630   -0.8710 C.3       1    LIG90    0.0000
      4 C3         14.1320  -12.1100   -0.5910 C.3       1    LIG90    0.0000
      5 C4         14.8270  -11.5160    0.6590 C.3       1    LIG90    0.0000
      6 C5         13.8110  -11.3480    1.8100 C.3       1    LIG90    0.0000
      7 C6         14.4210  -10.5860    3.0010 C.3       1    LIG90    0.0000
      8 N2         14.9690   -9.3270    2.5880 N.pl3     1    LIG90    0.0000
      9 C7         15.9880   -9.4250    1.5800 C.3       1    LIG90    0.0000
     10 C8         15.4410  -10.1370    0.3290 C.3       1    LIG90    0.0000
     11 O1         16.6760  -12.4700    1.8830 O.2       1    LIG90    0.0000
     12 C9         12.8230   -6.5900    3.8890 C.2       1    LIG90    0.0000
     13 C10        13.2180   -7.8330    3.3980 C.2       1    LIG90    0.0000
     14 C11        14.5830   -8.1180    3.1430 C.2       1    LIG90    0.0000
     15 C12        15.5200   -7.0830    3.4610 C.2       1    LIG90    0.0000
     16 C13        15.0430   -5.8380    3.9460 C.2       1    LIG90    0.0000
     17 N3         13.7210   -5.6190    4.1480 N.2       1    LIG90    0.0000
     18 N4         11.4900   -6.5480    4.0140 N.pl3     1    LIG90    0.0000
     19 C14        12.0340   -8.5410    3.2010 C.2       1    LIG90    0.0000
     20 C15        10.9850   -7.7200    3.6030 C.2       1    LIG90    0.0000
     21 S1         19.7620   -9.8050    4.9350 S.3       1    LIG90    0.0000
     22 C16        21.1950   -9.0670    4.2920 C.2       1    LIG90    0.0000
     23 N5         21.0180   -7.9600    3.5500 N.2       1    LIG90    0.0000
     24 C17        19.7210   -7.6460    3.4580 C.2       1    LIG90    0.0000
     25 C18        18.8960   -8.5350    4.1450 C.2       1    LIG90    0.0000
     26 C19        17.5040   -8.3590    4.1540 C.2       1    LIG90    0.0000
     27 C20        16.9280   -7.2710    3.4540 C.2       1    LIG90    0.0000
     28 C21        17.7810   -6.3700    2.7680 C.2       1    LIG90    0.0000
     29 C22        19.1770   -6.5550    2.7630 C.2       1    LIG90    0.0000
     30 H1         16.4140  -14.3200    0.1760 H         1    LIG90    0.0000
     31 H2         15.2480  -13.4740   -1.8680 H         1    LIG90    0.0000
     32 H3         14.0910  -14.2800   -0.7660 H         1    LIG90    0.0000
     33 H4         14.2590  -11.4560   -1.4550 H         1    LIG90    0.0000
     34 H5         13.0660  -12.2610   -0.4140 H         1    LIG90    0.0000
     35 H6         13.4600  -12.3240    2.1490 H         1    LIG90    0.0000
     36 H7         12.9570  -10.7850    1.4340 H         1    LIG90    0.0000
     37 H8         13.6760  -10.4840    3.7880 H         1    LIG90    0.0000
     38 H9         15.2310  -11.1850    3.4170 H         1    LIG90    0.0000
     39 H10        16.3340   -8.4480    1.2450 H         1    LIG90    0.0000
     40 H11        16.8390   -9.9840    1.9690 H         1    LIG90    0.0000
     41 H12        16.2450  -10.2490   -0.4000 H         1    LIG90    0.0000
     42 H13        14.6670   -9.5040   -0.1070 H         1    LIG90    0.0000
     43 H14        15.6960   -5.0900    4.1870 H         1    LIG90    0.0000
     44 H15        10.9780   -5.7900    4.3340 H         1    LIG90    0.0000
     45 H16        11.9350   -9.4810    2.8260 H         1    LIG90    0.0000
     46 H17         9.9950   -7.9650    3.5770 H         1    LIG90    0.0000
     47 H18        22.1230   -9.4530    4.4690 H         1    LIG90    0.0000
     48 H19        16.9190   -9.0220    4.6640 H         1    LIG90    0.0000
     49 H20        17.3880   -5.5770    2.2570 H         1    LIG90    0.0000
     50 H21        19.7840   -5.9050    2.2620 H         1    LIG90    0.0000
@<TRIPOS>BOND
     1    1    2 1
     2    1    5 1
     3    1   11 2
     4    2    3 1
     5    2   30 1
     6    3    4 1
     7    3   31 1
     8    3   32 1
     9    4    5 1
    10    4   33 1
    11    4   34 1
    12    5    6 1
    13    5   10 1
    14    6    7 1
    15    6   35 1
    16    6   36 1
    17    7    8 1
    18    7   37 1
    19    7   38 1
    20    8    9 1
    21    8   14 1
    22    9   10 1
    23    9   39 1
    24    9   40 1
    25   10   41 1
    26   10   42 1
    27   12   13 1
    28   12   17 2
    29   12   18 1
    30   13   14 2
    31   13   19 1
    32   14   15 1
    33   15   16 2
    34   15   27 1
    35   16   17 1
    36   16   43 1
    37   18   20 1
    38   18   44 1
    39   19   20 2
    40   19   45 1
    41   20   46 1
    42   21   22 1
    43   21   25 1
    44   22   23 2
    45   22   47 1
    46   23   24 1
    47   24   25 1
    48   24   29 2
    49   25   26 2
    50   26   27 1
    51   26   48 1
    52   27   28 2
    53   28   29 1
    54   28   49 1
    55   29   50 1
@<TRIPOS>SUBSTRUCTURE
     1    LIG90    1   GROUP 1   LIG 1
@<TRIPOS>MOLECULE
692601
   46    49    1     0     0
SMALL
USER_CHARGES


@<TRIPOS>ATOM
      1 C1         -1.2800    1.4300   -0.2990 C.2       1    LIG91    0.0000
      2 C2         -1.7370    2.3080    0.7030 C.2       1    LIG91    0.0000
      3 O1          0.0390    1.0740   -0.3720 O.3       1    LIG91    0.0000
      4 C3          1.0060    1.3250    0.6780 C.3       1    LIG91    0.0000
      5 C4          0.5130    2.2980    1.7080 C.2       1    LIG91    0.0000
      6 C5         -0.8000    2.7550    1.6460 C.2       1    LIG91    0.0000
      7 C6          1.1420    3.0050    2.7510 C.2       1    LIG91    0.0000
      8 C7          0.1540    3.8540    3.2890 C.2       1    LIG91    0.0000
      9 N1         -0.9820    3.6720    2.5990 N.pl3     1    LIG91    0.0000
     10 C8          0.1740    4.7170    4.4030 C.2       1    LIG91    0.0000
     11 O2         -0.8340    5.4160    4.6490 O.2       1    LIG91    0.0000
     12 N2          1.1880    4.8030    5.2750 N.am      1    LIG91    0.0000
     13 C9         -3.0840    2.7180    0.7180 C.2       1    LIG91    0.0000
     14 C10        -3.9540    2.2210   -0.2660 C.2       1    LIG91    0.0000
     15 N3         -3.4850    1.3710   -1.2140 N.2       1    LIG91    0.0000
     16 C11        -2.1910    0.9680   -1.2630 C.2       1    LIG91    0.0000
     17 C12         1.3190   -0.0740    1.2520 C.3       1    LIG91    0.0000
     18 C13         2.2360    1.8730   -0.0710 C.3       1    LIG91    0.0000
     19 C14         2.5120    2.9490    3.1260 C.2       1    LIG91    0.0000
     20 C15         3.2640    4.1350    3.2900 C.2       1    LIG91    0.0000
     21 C16         4.6250    4.0880    3.6390 C.2       1    LIG91    0.0000
     22 C17         5.2620    2.8510    3.8400 C.2       1    LIG91    0.0000
     23 C18         4.5230    1.6650    3.6920 C.2       1    LIG91    0.0000
     24 C19         3.1640    1.7160    3.3420 C.2       1    LIG91    0.0000
     25 S1          6.9450    2.7870    4.2660 S.o2      1    LIG91    0.0000
     26 N4          7.7110    2.6070    2.7860 N.pl3     1    LIG91    0.0000
     27 O3          7.4270    4.2210    4.7560 O.2       1    LIG91    0.0000
     28 O4          7.2420    1.4050    4.9930 O.2       1    LIG91    0.0000
     29 H1         -1.8150    4.1360    2.7780 H         1    LIG91    0.0000
     30 H2          1.1200    5.4100    6.0270 H         1    LIG91    0.0000
     31 H3          1.9740    4.2460    5.1720 H         1    LIG91    0.0000
     32 H4         -3.4340    3.3590    1.4320 H         1    LIG91    0.0000
     33 H5         -4.9360    2.4990   -0.2700 H         1    LIG91    0.0000
     34 H6         -1.8800    0.3360   -2.0010 H         1    LIG91    0.0000
     35 H7          2.3720   -0.1590    1.5140 H         1    LIG91    0.0000
     36 H8          0.7030   -0.2830    2.1280 H         1    LIG91    0.0000
     37 H9          1.1120   -0.8340    0.4970 H         1    LIG91    0.0000
     38 H10         3.0870    1.9810    0.5990 H         1    LIG91    0.0000
     39 H11         2.5090    1.1840   -0.8710 H         1    LIG91    0.0000
     40 H12         2.0010    2.8430   -0.5110 H         1    LIG91    0.0000
     41 H13         2.8310    5.0460    3.1330 H         1    LIG91    0.0000
     42 H14         5.1520    4.9550    3.7420 H         1    LIG91    0.0000
     43 H15         4.9730    0.7630    3.8510 H         1    LIG91    0.0000
     44 H16         2.6390    0.8460    3.3020 H         1    LIG91    0.0000
     45 H17         8.0310    3.3890    2.3110 H         1    LIG91    0.0000
     46 H18         7.8500    1.7210    2.4210 H         1    LIG91    0.0000
@<TRIPOS>BOND
     1    1    2 1
     2    1    3 1
     3    1   16 2
     4    2    6 1
     5    2   13 2
     6    3    4 1
     7    4    5 1
     8    4   17 1
     9    4   18 1
    10    5    6 2
    11    5    7 1
    12    6    9 1
    13    7    8 2
    14    7   19 1
    15    8    9 1
    16    8   10 1
    17    9   29 1
    18   10   11 2
    19   10   12 1
    20   12   30 1
    21   12   31 1
    22   13   14 1
    23   13   32 1
    24   14   15 2
    25   14   33 1
    26   15   16 1
    27   16   34 1
    28   17   35 1
    29   17   36 1
    30   17   37 1
    31   18   38 1
    32   18   39 1
    33   18   40 1
    34   19   20 2
    35   19   24 1
    36   20   21 1
    37   20   41 1
    38   21   22 2
    39   21   42 1
    40   22   23 1
    41   22   25 1
    42   23   24 2
    43   23   43 1
    44   24   44 1
    45   25   26 1
    46   25   27 2
    47   25   28 2
    48   26   45 1
    49   26   46 1
@<TRIPOS>SUBSTRUCTURE
     1    LIG91    1   GROUP 1   LIG 1
@<TRIPOS>MOLECULE
692614
   42    45    1     0     0
SMALL
USER_CHARGES


@<TRIPOS>ATOM
      1 C1         -2.3630    1.7850    0.8340 C.2       1    LIG92    0.0000
      2 C2         -2.9830    0.5310    0.6450 C.2       1    LIG92    0.0000
      3 O1         -2.6320    2.5530    1.9400 O.3       1    LIG92    0.0000
      4 C3         -3.7010    2.2660    2.8750 C.3       1    LIG92    0.0000
      5 C4         -4.2680    0.9030    2.6960 C.2       1    LIG92    0.0000
      6 C5         -3.9100    0.1120    1.6120 C.2       1    LIG92    0.0000
      7 C6         -5.2070    0.1790    3.4330 C.2       1    LIG92    0.0000
      8 C7         -5.3870   -1.0370    2.7630 C.2       1    LIG92    0.0000
      9 N1         -4.5960   -1.0380    1.6770 N.pl3     1    LIG92    0.0000
     10 C8         -6.2330   -2.1010    3.1090 C.2       1    LIG92    0.0000
     11 O2         -6.2720   -3.1250    2.3920 O.2       1    LIG92    0.0000
     12 O3         -7.0230   -2.0580    4.2020 O.3       1    LIG92    0.0000
     13 C9         -2.6600   -0.2520   -0.4800 C.2       1    LIG92    0.0000
     14 C10        -1.7210    0.2400   -1.4000 C.2       1    LIG92    0.0000
     15 N2         -1.1400    1.4480   -1.1910 N.2       1    LIG92    0.0000
     16 C11        -1.4270    2.2250   -0.1150 C.2       1    LIG92    0.0000
     17 C12        -3.0980    2.4540    4.2790 C.3       1    LIG92    0.0000
     18 C13        -4.7810    3.3390    2.6430 C.3       1    LIG92    0.0000
     19 C14        -5.8230    0.5730    4.5990 C.2       1    LIG92    0.0000
     20 C15        -6.9520    1.2970    4.5470 C.2       1    LIG92    0.0000
     21 C16        -7.6600    1.7160    5.7300 C.3       1    LIG92    0.0000
     22 O4         -7.2110    1.0440    6.9070 O.3       1    LIG92    0.0000
     23 C17        -5.7990    0.9510    7.0510 C.3       1    LIG92    0.0000
     24 C18        -5.2480    0.1510    5.8620 C.3       1    LIG92    0.0000
     25 H1         -4.5330   -1.7650    1.0380 H         1    LIG92    0.0000
     26 H2         -7.5680   -2.8620    4.3230 H         1    LIG92    0.0000
     27 H3         -3.0980   -1.1620   -0.6340 H         1    LIG92    0.0000
     28 H4         -1.4730   -0.3090   -2.2240 H         1    LIG92    0.0000
     29 H5         -0.9590    3.1240    0.0030 H         1    LIG92    0.0000
     30 H6         -3.8810    2.4440    5.0370 H         1    LIG92    0.0000
     31 H7         -2.3780    1.6610    4.4870 H         1    LIG92    0.0000
     32 H8         -2.5840    3.4150    4.3250 H         1    LIG92    0.0000
     33 H9         -5.5550    3.2780    3.4080 H         1    LIG92    0.0000
     34 H10        -4.3230    4.3280    2.6880 H         1    LIG92    0.0000
     35 H11        -5.2340    3.2080    1.6590 H         1    LIG92    0.0000
     36 H12        -7.3250    1.5700    3.6680 H         1    LIG92    0.0000
     37 H13        -7.5260    2.7910    5.8550 H         1    LIG92    0.0000
     38 H14        -8.7220    1.5070    5.6020 H         1    LIG92    0.0000
     39 H15        -5.5560    0.4410    7.9840 H         1    LIG92    0.0000
     40 H16        -5.3630    1.9510    7.0630 H         1    LIG92    0.0000
     41 H17        -5.4760   -0.9040    6.0160 H         1    LIG92    0.0000
     42 H18        -4.1630    0.2730    5.8470 H         1    LIG92    0.0000
@<TRIPOS>BOND
     1    1    2 1
     2    1    3 1
     3    1   16 2
     4    2    6 1
     5    2   13 2
     6    3    4 1
     7    4    5 1
     8    4   17 1
     9    4   18 1
    10    5    6 2
    11    5    7 1
    12    6    9 1
    13    7    8 2
    14    7   19 1
    15    8    9 1
    16    8   10 1
    17    9   25 1
    18   10   11 2
    19   10   12 1
    20   12   26 1
    21   13   14 1
    22   13   27 1
    23   14   15 2
    24   14   28 1
    25   15   16 1
    26   16   29 1
    27   17   30 1
    28   17   31 1
    29   17   32 1
    30   18   33 1
    31   18   34 1
    32   18   35 1
    33   19   20 2
    34   19   24 1
    35   20   21 1
    36   20   36 1
    37   21   22 1
    38   21   37 1
    39   21   38 1
    40   22   23 1
    41   23   24 1
    42   23   39 1
    43   23   40 1
    44   24   41 1
    45   24   42 1
@<TRIPOS>SUBSTRUCTURE
     1    LIG92    1   GROUP 1   LIG 1
@<TRIPOS>MOLECULE
692691
   41    44    1     0     0
SMALL
USER_CHARGES


@<TRIPOS>ATOM
      1 C1         -0.8490    1.6840    0.2810 C.2       1    LIG93    0.0000
      2 C2         -0.9300    3.0720    0.5370 C.2       1    LIG93    0.0000
      3 O1         -0.3770    1.1990   -0.9160 O.3       1    LIG93    0.0000
      4 C3          0.1660    2.0430   -1.9630 C.3       1    LIG93    0.0000
      5 C4          0.0210    3.4840   -1.6720 C.2       1    LIG93    0.0000
      6 C5         -0.4990    3.9460   -0.4730 C.2       1    LIG93    0.0000
      7 C6          0.3490    4.5960   -2.4360 C.2       1    LIG93    0.0000
      8 C7          0.0210    5.7160   -1.6730 C.2       1    LIG93    0.0000
      9 N1         -0.4850    5.2890   -0.5010 N.pl3     1    LIG93    0.0000
     10 C8          0.1780    7.0610   -2.0320 C.2       1    LIG93    0.0000
     11 O2         -0.1650    7.9620   -1.2370 O.2       1    LIG93    0.0000
     12 N2          0.6900    7.4230   -3.2180 N.am      1    LIG93    0.0000
     13 C9         -1.4330    3.5340    1.7680 C.2       1    LIG93    0.0000
     14 C10        -1.8430    2.5940    2.7270 C.2       1    LIG93    0.0000
     15 N3         -1.7500    1.2680    2.4550 N.2       1    LIG93    0.0000
     16 C11        -1.2730    0.7910    1.2770 C.2       1    LIG93    0.0000
     17 C12         1.6420    1.6540   -2.2120 C.3       1    LIG93    0.0000
     18 C13         2.5030    1.8050   -0.9400 C.3       1    LIG93    0.0000
     19 C14         3.9590    1.4050   -1.2240 C.3       1    LIG93    0.0000
     20 C15         4.0280   -0.0420   -1.7340 C.3       1    LIG93    0.0000
     21 C16         3.1700   -0.2040   -2.9970 C.3       1    LIG93    0.0000
     22 C17         1.7160    0.1980   -2.7120 C.3       1    LIG93    0.0000
     23 H1         -0.3970    1.8360   -2.8740 H         1    LIG93    0.0000
     24 H2          0.7580    4.5880   -3.3710 H         1    LIG93    0.0000
     25 H3         -0.7930    5.8690    0.2140 H         1    LIG93    0.0000
     26 H4          0.7830    8.3630   -3.4330 H         1    LIG93    0.0000
     27 H5          0.9660    6.7480   -3.8560 H         1    LIG93    0.0000
     28 H6         -1.5010    4.5320    1.9710 H         1    LIG93    0.0000
     29 H7         -2.2090    2.9050    3.6270 H         1    LIG93    0.0000
     30 H8         -1.2250   -0.2160    1.1170 H         1    LIG93    0.0000
     31 H9          2.0530    2.2980   -2.9920 H         1    LIG93    0.0000
     32 H10         2.1040    1.1680   -0.1490 H         1    LIG93    0.0000
     33 H11         2.4840    2.8410   -0.6020 H         1    LIG93    0.0000
     34 H12         4.3780    2.0760   -1.9750 H         1    LIG93    0.0000
     35 H13         4.5410    1.4920   -0.3070 H         1    LIG93    0.0000
     36 H14         5.0630   -0.2930   -1.9660 H         1    LIG93    0.0000
     37 H15         3.6640   -0.7170   -0.9590 H         1    LIG93    0.0000
     38 H16         3.5720    0.4250   -3.7930 H         1    LIG93    0.0000
     39 H17         3.1990   -1.2460   -3.3200 H         1    LIG93    0.0000
     40 H18         1.3000   -0.4710   -1.9570 H         1    LIG93    0.0000
     41 H19         1.1350    0.1000   -3.6300 H         1    LIG93    0.0000
@<TRIPOS>BOND
     1    1    2 1
     2    1    3 1
     3    1   16 2
     4    2    6 1
     5    2   13 2
     6    3    4 1
     7    4    5 1
     8    4   17 1
     9    4   23 1
    10    5    6 2
    11    5    7 1
    12    6    9 1
    13    7    8 2
    14    7   24 1
    15    8    9 1
    16    8   10 1
    17    9   25 1
    18   10   11 2
    19   10   12 1
    20   12   26 1
    21   12   27 1
    22   13   14 1
    23   13   28 1
    24   14   15 2
    25   14   29 1
    26   15   16 1
    27   16   30 1
    28   17   18 1
    29   17   22 1
    30   17   31 1
    31   18   19 1
    32   18   32 1
    33   18   33 1
    34   19   20 1
    35   19   34 1
    36   19   35 1
    37   20   21 1
    38   20   36 1
    39   20   37 1
    40   21   22 1
    41   21   38 1
    42   21   39 1
    43   22   40 1
    44   22   41 1
@<TRIPOS>SUBSTRUCTURE
     1    LIG93    1   GROUP 1   LIG 1
@<TRIPOS>MOLECULE
50778302
   33    36    1     0     0
SMALL
USER_CHARGES


@<TRIPOS>ATOM
      1 C1          6.7660   -5.1320    0.9520 C.3       1    LIG94    0.0000
      2 C2          5.9330   -6.4120    0.6510 C.3       1    LIG94    0.0000
      3 C3          6.9630   -6.4630   -1.6470 C.2       1    LIG94    0.0000
      4 C4          6.1060   -7.0110   -0.6950 C.2       1    LIG94    0.0000
      5 C5          5.4600   -8.1570   -1.1720 C.2       1    LIG94    0.0000
      6 S1          5.9100   -8.5590   -2.7980 S.3       1    LIG94    0.0000
      7 C6          6.9650   -7.1870   -2.8340 C.2       1    LIG94    0.0000
      8 S2          7.9180   -6.7750   -4.2240 S.3       1    LIG94    0.0000
      9 C7          7.4840   -8.0510   -5.4190 C.3       1    LIG94    0.0000
     10 C8          7.6290   -4.6660   -0.1510 C.2       1    LIG94    0.0000
     11 C9          7.7100   -5.3090   -1.3770 C.2       1    LIG94    0.0000
     12 S3          8.8090   -4.5200   -2.4590 S.3       1    LIG94    0.0000
     13 N1          9.1270   -3.3700   -1.2680 N.2       1    LIG94    0.0000
     14 C10         8.4560   -3.5540   -0.1200 C.2       1    LIG94    0.0000
     15 C11         4.5320   -8.9490   -0.4740 C.2       1    LIG94    0.0000
     16 O1          4.2060   -8.6590    0.7010 O.2       1    LIG94    0.0000
     17 N2          4.0120  -10.0260   -1.1130 N.am      1    LIG94    0.0000
     18 C12         3.1110  -10.8990   -0.6050 C.2       1    LIG94    0.0000
     19 C13         2.6380  -11.9740   -1.3430 C.2       1    LIG94    0.0000
     20 C14         1.7290  -12.7210   -0.6140 C.2       1    LIG94    0.0000
     21 S4          1.4710  -12.0840    0.9730 S.3       1    LIG94    0.0000
     22 N3          2.5700  -10.8540    0.6250 N.2       1    LIG94    0.0000
     23 H1          7.3980   -5.3300    1.8200 H         1    LIG94    0.0000
     24 H2          6.0770   -4.3270    1.2110 H         1    LIG94    0.0000
     25 H3          4.8780   -6.1630    0.7800 H         1    LIG94    0.0000
     26 H4          6.1950   -7.1650    1.3960 H         1    LIG94    0.0000
     27 H5          8.0350   -7.8800   -6.3440 H         1    LIG94    0.0000
     28 H6          7.7450   -9.0320   -5.0210 H         1    LIG94    0.0000
     29 H7          6.4140   -8.0130   -5.6260 H         1    LIG94    0.0000
     30 H8          8.5460   -2.9390    0.6890 H         1    LIG94    0.0000
     31 H9          4.3130  -10.1850   -2.0210 H         1    LIG94    0.0000
     32 H10         2.9220  -12.1890   -2.2990 H         1    LIG94    0.0000
     33 H11         1.2620  -13.5540   -0.9730 H         1    LIG94    0.0000
@<TRIPOS>BOND
     1    1    2 1
     2    1   10 1
     3    1   23 1
     4    1   24 1
     5    2    4 1
     6    2   25 1
     7    2   26 1
     8    3    4 1
     9    3    7 2
    10    3   11 1
    11    4    5 2
    12    5    6 1
    13    5   15 1
    14    6    7 1
    15    7    8 1
    16    8    9 1
    17    9   27 1
    18    9   28 1
    19    9   29 1
    20   10   11 2
    21   10   14 1
    22   11   12 1
    23   12   13 1
    24   13   14 2
    25   14   30 1
    26   15   16 2
    27   15   17 1
    28   17   18 1
    29   17   31 1
    30   18   19 1
    31   18   22 2
    32   19   20 2
    33   19   32 1
    34   20   21 1
    35   20   33 1
    36   21   22 1
@<TRIPOS>SUBSTRUCTURE
     1    LIG94    1   GROUP 1   LIG 1
@<TRIPOS>MOLECULE
692612
   37    39    1     0     0
SMALL
USER_CHARGES


@<TRIPOS>ATOM
      1 C1         -0.5390    1.0230   -0.1680 C.2       1    LIG95    0.0000
      2 C2         -0.9770    1.6870    1.0000 C.2       1    LIG95    0.0000
      3 O1          0.6960    1.2720   -0.7180 O.3       1    LIG95    0.0000
      4 C3          1.6480    2.2240   -0.1760 C.3       1    LIG95    0.0000
      5 C4          1.1470    2.8900    1.0520 C.2       1    LIG95    0.0000
      6 C5         -0.1030    2.6150    1.5870 C.2       1    LIG95    0.0000
      7 C6          1.7400    3.8420    1.8710 C.2       1    LIG95    0.0000
      8 C7          0.8290    4.1240    2.8890 C.2       1    LIG95    0.0000
      9 N1         -0.2670    3.3690    2.6860 N.pl3     1    LIG95    0.0000
     10 C8          0.9940    5.0240    3.9490 C.2       1    LIG95    0.0000
     11 O2          0.0810    5.1680    4.7910 O.2       1    LIG95    0.0000
     12 N2          2.1120    5.7490    4.0970 N.am      1    LIG95    0.0000
     13 C9         -2.2490    1.4090    1.5360 C.2       1    LIG95    0.0000
     14 C10        -3.0640    0.4670    0.8880 C.2       1    LIG95    0.0000
     15 N3         -2.6180   -0.1540   -0.2320 N.2       1    LIG95    0.0000
     16 C11        -1.3980    0.0920   -0.7730 C.2       1    LIG95    0.0000
     17 C12         2.9110    1.4180    0.1930 C.3       1    LIG95    0.0000
     18 C13         1.9640    3.2760   -1.2780 C.3       1    LIG95    0.0000
     19 C14         2.5790    2.6320   -2.5350 C.3       1    LIG95    0.0000
     20 C15         0.7020    4.0510   -1.7090 C.3       1    LIG95    0.0000
     21 H1          2.6660    4.2530    1.7460 H         1    LIG95    0.0000
     22 H2         -1.0540    3.3720    3.2530 H         1    LIG95    0.0000
     23 H3          2.1910    6.3620    4.8440 H         1    LIG95    0.0000
     24 H4          2.8380    5.6610    3.4610 H         1    LIG95    0.0000
     25 H5         -2.5810    1.8780    2.3800 H         1    LIG95    0.0000
     26 H6         -3.9890    0.2500    1.2590 H         1    LIG95    0.0000
     27 H7         -1.1070   -0.4000   -1.6180 H         1    LIG95    0.0000
     28 H8          3.7270    2.0920    0.4590 H         1    LIG95    0.0000
     29 H9          2.7010    0.7570    1.0370 H         1    LIG95    0.0000
     30 H10         3.2190    0.8020   -0.6510 H         1    LIG95    0.0000
     31 H11         2.6880    3.9960   -0.8910 H         1    LIG95    0.0000
     32 H12         2.7040    3.3860   -3.3120 H         1    LIG95    0.0000
     33 H13         3.5580    2.2140   -2.3010 H         1    LIG95    0.0000
     34 H14         1.9270    1.8410   -2.9060 H         1    LIG95    0.0000
     35 H15         0.9610    4.7710   -2.4870 H         1    LIG95    0.0000
     36 H16        -0.0440    3.3580   -2.0990 H         1    LIG95    0.0000
     37 H17         0.2820    4.5920   -0.8610 H         1    LIG95    0.0000
@<TRIPOS>BOND
     1    1    2 1
     2    1    3 1
     3    1   16 2
     4    2    6 1
     5    2   13 2
     6    3    4 1
     7    4    5 1
     8    4   17 1
     9    4   18 1
    10    5    6 2
    11    5    7 1
    12    6    9 1
    13    7    8 2
    14    7   21 1
    15    8    9 1
    16    8   10 1
    17    9   22 1
    18   10   11 2
    19   10   12 1
    20   12   23 1
    21   12   24 1
    22   13   14 1
    23   13   25 1
    24   14   15 2
    25   14   26 1
    26   15   16 1
    27   16   27 1
    28   17   28 1
    29   17   29 1
    30   17   30 1
    31   18   19 1
    32   18   20 1
    33   18   31 1
    34   19   32 1
    35   19   33 1
    36   19   34 1
    37   20   35 1
    38   20   36 1
    39   20   37 1
@<TRIPOS>SUBSTRUCTURE
     1    LIG95    1   GROUP 1   LIG 1
@<TRIPOS>MOLECULE
692694
   51    54    1     0     0
SMALL
USER_CHARGES


@<TRIPOS>ATOM
      1 C1         -2.4920    2.2440   -0.1130 C.2       1    LIG96    0.0000
      2 C2         -1.1970    1.9500    0.3810 C.2       1    LIG96    0.0000
      3 O1         -3.1190    1.4050   -0.9880 O.3       1    LIG96    0.0000
      4 C3         -2.7750    0.0110   -1.0850 C.3       1    LIG96    0.0000
      5 C4         -1.3420   -0.2190   -0.7430 C.2       1    LIG96    0.0000
      6 C5         -0.5880    0.7290   -0.0490 C.2       1    LIG96    0.0000
      7 C6         -0.5420   -1.3420   -0.9330 C.2       1    LIG96    0.0000
      8 C7          0.7140   -1.0470   -0.3850 C.2       1    LIG96    0.0000
      9 N1          0.6680    0.2250    0.1060 N.pl3     1    LIG96    0.0000
     10 C8          1.8310   -1.9280   -0.3440 C.2       1    LIG96    0.0000
     11 O2          2.9050   -1.6050    0.2060 O.2       1    LIG96    0.0000
     12 N2          1.8310   -3.1680   -0.8580 N.am      1    LIG96    0.0000
     13 C9         -0.9470   -2.5430   -1.5500 C.2       1    LIG96    0.0000
     14 C10        -0.6200    2.8690    1.2870 C.2       1    LIG96    0.0000
     15 C11        -1.3080    4.0410    1.6390 C.2       1    LIG96    0.0000
     16 N3         -2.5320    4.2880    1.1170 N.2       1    LIG96    0.0000
     17 C12        -3.1380    3.4340    0.2590 C.2       1    LIG96    0.0000
     18 C13        -3.1260   -0.3780   -2.5350 C.3       1    LIG96    0.0000
     19 C14        -3.7010   -0.7510   -0.1180 C.3       1    LIG96    0.0000
     20 C15        -1.5400   -3.5850   -0.7980 C.2       1    LIG96    0.0000
     21 C16        -1.9160   -4.7780   -1.4530 C.2       1    LIG96    0.0000
     22 C17        -1.6990   -4.9380   -2.8310 C.2       1    LIG96    0.0000
     23 C18        -1.1010   -3.9070   -3.5710 C.2       1    LIG96    0.0000
     24 C19        -0.7210   -2.7150   -2.9330 C.2       1    LIG96    0.0000
     25 O3         -1.7230   -3.3940    0.5460 O.3       1    LIG96    0.0000
     26 C20        -2.3660   -4.3530    1.3890 C.3       1    LIG96    0.0000
     27 C21         1.8030    0.9380    0.6180 C.3       1    LIG96    0.0000
     28 C22         2.0090    0.6560    2.1170 C.3       1    LIG96    0.0000
     29 F1          3.0110    1.4540    2.6100 F         1    LIG96    0.0000
     30 H1          2.6300   -3.7110   -0.7850 H         1    LIG96    0.0000
     31 H2          1.0470   -3.5240   -1.2980 H         1    LIG96    0.0000
     32 H3          0.2790    2.6990    1.7250 H         1    LIG96    0.0000
     33 H4         -0.8890    4.7040    2.2930 H         1    LIG96    0.0000
     34 H5         -4.0630    3.6540   -0.1110 H         1    LIG96    0.0000
     35 H6         -3.1610   -1.4600   -2.6470 H         1    LIG96    0.0000
     36 H7         -4.1100    0.0210   -2.7860 H         1    LIG96    0.0000
     37 H8         -2.3920    0.0390   -3.2260 H         1    LIG96    0.0000
     38 H9         -3.5980   -1.8260   -0.2540 H         1    LIG96    0.0000
     39 H10        -3.4590   -0.4940    0.9150 H         1    LIG96    0.0000
     40 H11        -4.7370   -0.4720   -0.3150 H         1    LIG96    0.0000
     41 H12        -2.3480   -5.5380   -0.9290 H         1    LIG96    0.0000
     42 H13        -1.9760   -5.8040   -3.2940 H         1    LIG96    0.0000
     43 H14        -0.9410   -4.0230   -4.5720 H         1    LIG96    0.0000
     44 H15        -0.2850   -1.9730   -3.4830 H         1    LIG96    0.0000
     45 H16        -2.4030   -3.9600    2.4050 H         1    LIG96    0.0000
     46 H17        -3.3860   -4.5360    1.0460 H         1    LIG96    0.0000
     47 H18        -1.8050   -5.2890    1.3940 H         1    LIG96    0.0000
     48 H19         2.7060    0.6620    0.0760 H         1    LIG96    0.0000
     49 H20         1.6970    2.0070    0.4450 H         1    LIG96    0.0000
     50 H21         1.0900    0.8580    2.6670 H         1    LIG96    0.0000
     51 H22         2.2830   -0.3880    2.2650 H         1    LIG96    0.0000
@<TRIPOS>BOND
     1    1    2 1
     2    1    3 1
     3    1   17 2
     4    2    6 1
     5    2   14 2
     6    3    4 1
     7    4    5 1
     8    4   18 1
     9    4   19 1
    10    5    6 2
    11    5    7 1
    12    6    9 1
    13    7    8 2
    14    7   13 1
    15    8    9 1
    16    8   10 1
    17    9   27 1
    18   10   11 2
    19   10   12 1
    20   12   30 1
    21   12   31 1
    22   13   20 2
    23   13   24 1
    24   14   15 1
    25   14   32 1
    26   15   16 2
    27   15   33 1
    28   16   17 1
    29   17   34 1
    30   18   35 1
    31   18   36 1
    32   18   37 1
    33   19   38 1
    34   19   39 1
    35   19   40 1
    36   20   21 1
    37   20   25 1
    38   21   22 2
    39   21   41 1
    40   22   23 1
    41   22   42 1
    42   23   24 2
    43   23   43 1
    44   24   44 1
    45   25   26 1
    46   26   45 1
    47   26   46 1
    48   26   47 1
    49   27   28 1
    50   27   48 1
    51   27   49 1
    52   28   29 1
    53   28   50 1
    54   28   51 1
@<TRIPOS>SUBSTRUCTURE
     1    LIG96    1   GROUP 1   LIG 1
@<TRIPOS>MOLECULE
50760039
   52    55    1     0     0
SMALL
USER_CHARGES


@<TRIPOS>ATOM
      1 C1          9.5700  -20.2260   -0.8500 C.2       1    LIG97    0.0000
      2 N1         10.5440  -20.1980    0.0960 N.am      1    LIG97    0.0000
      3 C2         11.6410  -19.3950    0.1130 C.2       1    LIG97    0.0000
      4 C3         11.6220  -18.0440   -0.2960 C.2       1    LIG97    0.0000
      5 C4         12.7880  -17.2620   -0.2300 C.2       1    LIG97    0.0000
      6 C5         13.9900  -17.8140    0.2530 C.2       1    LIG97    0.0000
      7 C6         15.2220  -17.0040    0.3190 C.3       1    LIG97    0.0000
      8 N2         16.2990  -17.5730   -0.5240 N.3       1    LIG97    0.0000
      9 C7         17.5830  -16.9200   -0.1950 C.3       1    LIG97    0.0000
     10 C8         18.7120  -17.5230   -1.0430 C.3       1    LIG97    0.0000
     11 O1         18.3830  -17.4040   -2.4250 O.3       1    LIG97    0.0000
     12 C9         17.1430  -17.9910   -2.8090 C.3       1    LIG97    0.0000
     13 C10        16.0090  -17.3910   -1.9650 C.3       1    LIG97    0.0000
     14 C11        14.0070  -19.1570    0.6770 C.2       1    LIG97    0.0000
     15 C12        12.8410  -19.9390    0.6110 C.2       1    LIG97    0.0000
     16 O2          9.6080  -19.4790   -1.8570 O.2       1    LIG97    0.0000
     17 C13         8.5130  -21.1380   -0.6800 C.2       1    LIG97    0.0000
     18 C14         7.4570  -21.2620   -1.5950 C.2       1    LIG97    0.0000
     19 C15         6.3260  -22.1270   -1.4850 C.2       1    LIG97    0.0000
     20 C16         5.3510  -22.2810   -2.5270 C.2       1    LIG97    0.0000
     21 C17         5.4980  -21.8310   -3.8860 C.2       1    LIG97    0.0000
     22 C18         6.6480  -21.5050   -4.6040 C.2       1    LIG97    0.0000
     23 N3          6.3020  -21.1770   -5.8540 N.pl3     1    LIG97    0.0000
     24 N4          5.0250  -21.2750   -6.0180 N.2       1    LIG97    0.0000
     25 C19         4.4990  -21.6790   -4.8510 C.2       1    LIG97    0.0000
     26 C20         4.1550  -22.9810   -2.2220 C.2       1    LIG97    0.0000
     27 C21         3.9730  -23.5840   -0.9740 C.2       1    LIG97    0.0000
     28 N5          4.9440  -23.4880   -0.0440 N.2       1    LIG97    0.0000
     29 C22         6.0860  -22.7990   -0.2610 C.2       1    LIG97    0.0000
     30 H1         10.4710  -20.8460    0.8140 H         1    LIG97    0.0000
     31 H2         10.7580  -17.6230   -0.6380 H         1    LIG97    0.0000
     32 H3         12.7580  -16.2890   -0.5360 H         1    LIG97    0.0000
     33 H4         15.0280  -15.9740    0.0110 H         1    LIG97    0.0000
     34 H5         15.5510  -16.9860    1.3600 H         1    LIG97    0.0000
     35 H6         17.5210  -15.8480   -0.3920 H         1    LIG97    0.0000
     36 H7         17.8170  -17.0750    0.8590 H         1    LIG97    0.0000
     37 H8         19.6420  -16.9910   -0.8440 H         1    LIG97    0.0000
     38 H9         18.8390  -18.5760   -0.7850 H         1    LIG97    0.0000
     39 H10        16.9580  -17.7900   -3.8640 H         1    LIG97    0.0000
     40 H11        17.1820  -19.0700   -2.6510 H         1    LIG97    0.0000
     41 H12        15.9150  -16.3290   -2.1980 H         1    LIG97    0.0000
     42 H13        15.0800  -17.8960   -2.2290 H         1    LIG97    0.0000
     43 H14        14.8710  -19.5680    1.0330 H         1    LIG97    0.0000
     44 H15        12.8710  -20.9100    0.9250 H         1    LIG97    0.0000
     45 H16         8.5390  -21.7310    0.1480 H         1    LIG97    0.0000
     46 H17         7.4990  -20.6360   -2.3940 H         1    LIG97    0.0000
     47 H18         7.6100  -21.5530   -4.2710 H         1    LIG97    0.0000
     48 H19         6.9270  -20.9170   -6.5490 H         1    LIG97    0.0000
     49 H20         3.5010  -21.8340   -4.7030 H         1    LIG97    0.0000
     50 H21         3.4180  -23.1070   -2.9160 H         1    LIG97    0.0000
     51 H22         3.1200  -24.1060   -0.7730 H         1    LIG97    0.0000
     52 H23         6.7480  -22.7490    0.5120 H         1    LIG97    0.0000
@<TRIPOS>BOND
     1    1    2 1
     2    1   16 2
     3    1   17 1
     4    2    3 1
     5    2   30 1
     6    3    4 2
     7    3   15 1
     8    4    5 1
     9    4   31 1
    10    5    6 2
    11    5   32 1
    12    6    7 1
    13    6   14 1
    14    7    8 1
    15    7   33 1
    16    7   34 1
    17    8    9 1
    18    8   13 1
    19    9   10 1
    20    9   35 1
    21    9   36 1
    22   10   11 1
    23   10   37 1
    24   10   38 1
    25   11   12 1
    26   12   13 1
    27   12   39 1
    28   12   40 1
    29   13   41 1
    30   13   42 1
    31   14   15 2
    32   14   43 1
    33   15   44 1
    34   17   18 2
    35   17   45 1
    36   18   19 1
    37   18   46 1
    38   19   20 2
    39   19   29 1
    40   20   21 1
    41   20   26 1
    42   21   22 2
    43   21   25 1
    44   22   23 1
    45   22   47 1
    46   23   24 1
    47   23   48 1
    48   24   25 2
    49   25   49 1
    50   26   27 2
    51   26   50 1
    52   27   28 1
    53   27   51 1
    54   28   29 2
    55   29   52 1
@<TRIPOS>SUBSTRUCTURE
     1    LIG97    1   GROUP 1   LIG 1
@<TRIPOS>MOLECULE
692600
   41    44    1     0     0
SMALL
USER_CHARGES


@<TRIPOS>ATOM
      1 C1         -0.5930    1.4540   -0.3180 C.2       1    LIG98    0.0000
      2 C2         -1.0810    2.2510    0.7390 C.2       1    LIG98    0.0000
      3 O1          0.7350    1.1240   -0.4100 O.3       1    LIG98    0.0000
      4 C3          1.7430    1.5380    0.5450 C.3       1    LIG98    0.0000
      5 C4          1.1930    2.3810    1.6440 C.2       1    LIG98    0.0000
      6 C5         -0.1590    2.6950    1.6970 C.2       1    LIG98    0.0000
      7 C6          1.7950    2.9900    2.7500 C.2       1    LIG98    0.0000
      8 C7          0.7740    3.6590    3.4410 C.2       1    LIG98    0.0000
      9 N1         -0.3780    3.4570    2.7780 N.pl3     1    LIG98    0.0000
     10 C8          0.8390    4.4260    4.6190 C.2       1    LIG98    0.0000
     11 O2         -0.2060    4.9420    5.0710 O.2       1    LIG98    0.0000
     12 N2          1.9740    4.6410    5.2980 N.am      1    LIG98    0.0000
     13 C9         -2.4510    2.5740    0.8040 C.2       1    LIG98    0.0000
     14 C10        -3.3090    2.0900   -0.1960 C.2       1    LIG98    0.0000
     15 N3         -2.8100    1.3270   -1.2010 N.2       1    LIG98    0.0000
     16 C11        -1.4970    0.9990   -1.2920 C.2       1    LIG98    0.0000
     17 C12         2.3600    0.2370    1.0910 C.3       1    LIG98    0.0000
     18 C13         2.8040    2.3000   -0.2690 C.3       1    LIG98    0.0000
     19 C14         3.1560    2.9410    3.0990 C.2       1    LIG98    0.0000
     20 C15         4.0430    3.9410    2.6470 C.2       1    LIG98    0.0000
     21 C16         5.3980    3.9050    3.0170 C.2       1    LIG98    0.0000
     22 C17         5.8740    2.8760    3.8470 C.2       1    LIG98    0.0000
     23 C18         4.9940    1.8840    4.3110 C.2       1    LIG98    0.0000
     24 C19         3.6380    1.9190    3.9430 C.2       1    LIG98    0.0000
     25 H1         -1.2390    3.8120    3.0460 H         1    LIG98    0.0000
     26 H2          1.9540    5.1790    6.1040 H         1    LIG98    0.0000
     27 H3          2.8110    4.2630    4.9900 H         1    LIG98    0.0000
     28 H4         -2.8230    3.1480    1.5620 H         1    LIG98    0.0000
     29 H5         -4.3040    2.3120   -0.1690 H         1    LIG98    0.0000
     30 H6         -1.1670    0.4220   -2.0660 H         1    LIG98    0.0000
     31 H7          3.2540    0.4510    1.6760 H         1    LIG98    0.0000
     32 H8          1.6360   -0.2890    1.7140 H         1    LIG98    0.0000
     33 H9          2.6390   -0.4070    0.2570 H         1    LIG98    0.0000
     34 H10         3.6910    2.4880    0.3340 H         1    LIG98    0.0000
     35 H11         3.0940    1.7010   -1.1330 H         1    LIG98    0.0000
     36 H12         2.3960    3.2490   -0.6210 H         1    LIG98    0.0000
     37 H13         3.7090    4.6960    2.0460 H         1    LIG98    0.0000
     38 H14         6.0370    4.6270    2.6830 H         1    LIG98    0.0000
     39 H15         6.8590    2.8500    4.1150 H         1    LIG98    0.0000
     40 H16         5.3390    1.1390    4.9170 H         1    LIG98    0.0000
     41 H17         3.0070    1.1930    4.2900 H         1    LIG98    0.0000
@<TRIPOS>BOND
     1    1    2 1
     2    1    3 1
     3    1   16 2
     4    2    6 1
     5    2   13 2
     6    3    4 1
     7    4    5 1
     8    4   17 1
     9    4   18 1
    10    5    6 2
    11    5    7 1
    12    6    9 1
    13    7    8 2
    14    7   19 1
    15    8    9 1
    16    8   10 1
    17    9   25 1
    18   10   11 2
    19   10   12 1
    20   12   26 1
    21   12   27 1
    22   13   14 1
    23   13   28 1
    24   14   15 2
    25   14   29 1
    26   15   16 1
    27   16   30 1
    28   17   31 1
    29   17   32 1
    30   17   33 1
    31   18   34 1
    32   18   35 1
    33   18   36 1
    34   19   20 2
    35   19   24 1
    36   20   21 1
    37   20   37 1
    38   21   22 2
    39   21   38 1
    40   22   23 1
    41   22   39 1
    42   23   24 2
    43   23   40 1
    44   24   41 1
@<TRIPOS>SUBSTRUCTURE
     1    LIG98    1   GROUP 1   LIG 1
@<TRIPOS>MOLECULE
50778301
   29    31    1     0     0
SMALL
USER_CHARGES


@<TRIPOS>ATOM
      1 O1          8.2260   -8.3080    6.2110 O.2       1    LIG99    0.0000
      2 S1          9.4390   -7.4970    5.5790 S.o2      1    LIG99    0.0000
      3 O2          9.7050   -5.9520    5.8390 O.2       1    LIG99    0.0000
      4 C1          6.3330   -6.3150    1.0980 C.3       1    LIG99    0.0000
      5 C2          7.5690   -7.1440    0.6440 C.3       1    LIG99    0.0000
      6 C3          8.3250   -7.2150    3.0490 C.2       1    LIG99    0.0000
      7 C4          8.5170   -7.5520    1.7100 C.2       1    LIG99    0.0000
      8 C5          9.6820   -8.3010    1.5200 C.2       1    LIG99    0.0000
      9 S2         10.5510   -8.5930    2.9910 S.3       1    LIG99    0.0000
     10 C6          9.3430   -7.7090    3.8610 C.2       1    LIG99    0.0000
     11 C7         10.9240   -8.3440    6.1390 C.3       1    LIG99    0.0000
     12 C8          6.2610   -6.0290    2.5430 C.2       1    LIG99    0.0000
     13 C9          7.2130   -6.4620    3.4560 C.2       1    LIG99    0.0000
     14 S3          6.8370   -5.9610    5.0700 S.3       1    LIG99    0.0000
     15 N1          5.4450   -5.2010    4.4990 N.2       1    LIG99    0.0000
     16 C10         5.2590   -5.3080    3.1750 C.2       1    LIG99    0.0000
     17 C11        10.1630   -8.7970    0.2980 C.2       1    LIG99    0.0000
     18 O3          9.5640   -8.6090   -0.7830 O.2       1    LIG99    0.0000
     19 N2         11.3010   -9.5020    0.2640 N.am      1    LIG99    0.0000
     20 H1          5.4310   -6.8580    0.8110 H         1    LIG99    0.0000
     21 H2          6.3420   -5.3650    0.5610 H         1    LIG99    0.0000
     22 H3          8.1170   -6.5540   -0.0920 H         1    LIG99    0.0000
     23 H4          7.2040   -8.0460    0.1490 H         1    LIG99    0.0000
     24 H5         11.7980   -7.9050    5.6570 H         1    LIG99    0.0000
     25 H6         11.0130   -8.2360    7.2190 H         1    LIG99    0.0000
     26 H7         10.8580   -9.4020    5.8840 H         1    LIG99    0.0000
     27 H8          4.4630   -4.9000    2.6850 H         1    LIG99    0.0000
     28 H9         11.6280   -9.8420   -0.5820 H         1    LIG99    0.0000
     29 H10        11.7950   -9.6710    1.0810 H         1    LIG99    0.0000
@<TRIPOS>BOND
     1    1    2 2
     2    2    3 2
     3    2   10 1
     4    2   11 1
     5    4    5 1
     6    4   12 1
     7    4   20 1
     8    4   21 1
     9    5    7 1
    10    5   22 1
    11    5   23 1
    12    6    7 1
    13    6   10 2
    14    6   13 1
    15    7    8 2
    16    8    9 1
    17    8   17 1
    18    9   10 1
    19   11   24 1
    20   11   25 1
    21   11   26 1
    22   12   13 2
    23   12   16 1
    24   13   14 1
    25   14   15 1
    26   15   16 2
    27   16   27 1
    28   17   18 2
    29   17   19 1
    30   19   28 1
    31   19   29 1
@<TRIPOS>SUBSTRUCTURE
     1    LIG99    1   GROUP 1   LIG 1
@<TRIPOS>MOLECULE
50778306
   33    35    1     0     0
SMALL
USER_CHARGES


@<TRIPOS>ATOM
      1 C1          6.9070   -7.8230    1.0110 C.3       1   LIG100    0.0000
      2 C2          8.0720   -8.7690    0.6000 C.3       1   LIG100    0.0000
      3 C3          8.6500   -9.0160    3.0330 C.2       1   LIG100    0.0000
      4 C4          8.9010   -9.3300    1.6970 C.2       1   LIG100    0.0000
      5 C5          9.9910  -10.2030    1.5400 C.2       1   LIG100    0.0000
      6 S1         10.6920  -10.6260    3.0710 S.3       1   LIG100    0.0000
      7 C6          9.5370   -9.6410    3.8990 C.2       1   LIG100    0.0000
      8 S2          9.5110   -9.4680    5.6240 S.3       1   LIG100    0.0000
      9 C7         10.8850  -10.4970    6.1680 C.3       1   LIG100    0.0000
     10 C8          6.7710   -7.5850    2.4590 C.2       1   LIG100    0.0000
     11 C9          7.6060   -8.1600    3.4050 C.2       1   LIG100    0.0000
     12 S3          7.1890   -7.6890    5.0180 S.3       1   LIG100    0.0000
     13 N1          5.9300   -6.7510    4.4010 N.2       1   LIG100    0.0000
     14 C10         5.8170   -6.7810    3.0650 C.2       1   LIG100    0.0000
     15 C11        10.4830  -10.6940    0.3000 C.2       1   LIG100    0.0000
     16 O1          9.9050  -10.3200   -0.7480 O.2       1   LIG100    0.0000
     17 N2         11.5470  -11.5520    0.1340 N.am      1   LIG100    1.0000
     18 C12        11.9140  -11.9470   -1.1930 C.3       1   LIG100    0.0000
     19 C13        12.3130  -12.0770    1.2200 C.3       1   LIG100    0.0000
     20 H1          5.9720   -8.2510    0.6450 H         1   LIG100    0.0000
     21 H2          7.0560   -6.8610    0.5180 H         1   LIG100    0.0000
     22 H3          8.7280   -8.2130   -0.0720 H         1   LIG100    0.0000
     23 H4          7.6410   -9.6000    0.0390 H         1   LIG100    0.0000
     24 H5         10.9540  -10.4610    7.2550 H         1   LIG100    0.0000
     25 H6         10.7200  -11.5280    5.8520 H         1   LIG100    0.0000
     26 H7         11.8150  -10.1280    5.7350 H         1   LIG100    0.0000
     27 H8          5.1040   -6.2640    2.5490 H         1   LIG100    0.0000
     28 H9         12.7710  -12.6210   -1.1960 H         1   LIG100    0.0000
     29 H10        11.0760  -12.4570   -1.6700 H         1   LIG100    0.0000
     30 H11        12.1730  -11.0640   -1.7820 H         1   LIG100    0.0000
     31 H12        13.1040  -12.7410    0.8690 H         1   LIG100    0.0000
     32 H13        12.7830  -11.2620    1.7710 H         1   LIG100    0.0000
     33 H14        11.6680  -12.6540    1.8850 H         1   LIG100    0.0000
@<TRIPOS>BOND
     1    1    2 1
     2    1   10 1
     3    1   20 1
     4    1   21 1
     5    2    4 1
     6    2   22 1
     7    2   23 1
     8    3    4 1
     9    3    7 2
    10    3   11 1
    11    4    5 2
    12    5    6 1
    13    5   15 1
    14    6    7 1
    15    7    8 1
    16    8    9 1
    17    9   24 1
    18    9   25 1
    19    9   26 1
    20   10   11 2
    21   10   14 1
    22   11   12 1
    23   12   13 1
    24   13   14 2
    25   14   27 1
    26   15   16 2
    27   15   17 1
    28   17   18 1
    29   17   19 1
    30   18   28 1
    31   18   29 1
    32   18   30 1
    33   19   31 1
    34   19   32 1
    35   19   33 1
@<TRIPOS>SUBSTRUCTURE
     1   LIG100    1   GROUP 1   LIG 1
@<TRIPOS>MOLECULE
50778309
   26    28    1     0     0
SMALL
USER_CHARGES


@<TRIPOS>ATOM
      1 C1          7.7680   -6.1060    1.4350 C.3       1   LIG101    0.0000
      2 C2          9.0690   -6.6260    0.7550 C.3       1   LIG101    0.0000
      3 C3          8.9000   -4.7120   -0.8730 C.2       1   LIG101    0.0000
      4 C4          9.5600   -5.8460   -0.4080 C.2       1   LIG101    0.0000
      5 C5         10.7030   -6.1300   -1.1630 C.2       1   LIG101    0.0000
      6 S1         10.9650   -4.9980   -2.4500 S.3       1   LIG101    0.0000
      7 C6          9.5370   -4.1430   -1.9710 C.2       1   LIG101    0.0000
      8 S2          8.9740   -2.7220   -2.7890 S.3       1   LIG101    0.0000
      9 C7         10.1870   -2.4860   -4.1000 C.3       1   LIG101    0.0000
     10 C8         11.5890   -7.1980   -0.9580 C.2       1   LIG101    0.0000
     11 O1         11.4330   -8.0310   -0.0390 O.2       1   LIG101    0.0000
     12 N1         12.6490   -7.3500   -1.7620 N.am      1   LIG101    0.0000
     13 C9          7.1790   -4.8970    0.8340 C.2       1   LIG101    0.0000
     14 C10         7.7290   -4.2500   -0.2600 C.2       1   LIG101    0.0000
     15 S3          6.7970   -2.8680   -0.7150 S.3       1   LIG101    0.0000
     16 N2          5.7620   -3.2480    0.5620 N.2       1   LIG101    0.0000
     17 N3          6.0660   -4.2930    1.2640 N.2       1   LIG101    0.0000
     18 H1          7.0200   -6.8990    1.4010 H         1   LIG101    0.0000
     19 H2          7.9870   -5.8910    2.4810 H         1   LIG101    0.0000
     20 H3          8.8900   -7.6510    0.4260 H         1   LIG101    0.0000
     21 H4          9.8570   -6.6470    1.5090 H         1   LIG101    0.0000
     22 H5          9.9210   -1.6030   -4.6810 H         1   LIG101    0.0000
     23 H6         11.1760   -2.3450   -3.6640 H         1   LIG101    0.0000
     24 H7         10.1970   -3.3580   -4.7530 H         1   LIG101    0.0000
     25 H8         13.2590   -8.0890   -1.6160 H         1   LIG101    0.0000
     26 H9         12.8050   -6.7250   -2.4870 H         1   LIG101    0.0000
@<TRIPOS>BOND
     1    1    2 1
     2    1   13 1
     3    1   18 1
     4    1   19 1
     5    2    4 1
     6    2   20 1
     7    2   21 1
     8    3    4 1
     9    3    7 2
    10    3   14 1
    11    4    5 2
    12    5    6 1
    13    5   10 1
    14    6    7 1
    15    7    8 1
    16    8    9 1
    17    9   22 1
    18    9   23 1
    19    9   24 1
    20   10   11 2
    21   10   12 1
    22   12   25 1
    23   12   26 1
    24   13   14 2
    25   13   17 1
    26   14   15 1
    27   15   16 1
    28   16   17 2
@<TRIPOS>SUBSTRUCTURE
     1   LIG101    1   GROUP 1   LIG 1
@<TRIPOS>MOLECULE
692702
   44    47    1     0     0
SMALL
USER_CHARGES


@<TRIPOS>ATOM
      1 C1         -1.8160    1.6970    0.4190 C.2       1   LIG102    0.0000
      2 C2         -0.6510    0.9350    0.6000 C.2       1   LIG102    0.0000
      3 C3          0.6130    1.5740    0.6630 C.2       1   LIG102    0.0000
      4 C4          0.6510    2.9770    0.4950 C.2       1   LIG102    0.0000
      5 C5         -0.5410    3.6950    0.3090 C.2       1   LIG102    0.0000
      6 N1         -1.7260    3.0410    0.2790 N.2       1   LIG102    0.0000
      7 O1         -0.7770   -0.4190    0.7500 O.3       1   LIG102    0.0000
      8 C6          0.3310   -1.3260    0.5770 C.3       1   LIG102    0.0000
      9 C7          1.6250   -0.6380    0.7950 C.2       1   LIG102    0.0000
     10 C8          1.7620    0.7470    0.8550 C.2       1   LIG102    0.0000
     11 C9          2.8860   -1.1940    0.8980 C.2       1   LIG102    0.0000
     12 C10         3.7860   -0.1480    1.0590 C.2       1   LIG102    0.0000
     13 N2          3.0820    1.0190    1.0670 N.pl3     1   LIG102    0.0000
     14 C11         0.1400   -2.4730    1.5940 C.3       1   LIG102    0.0000
     15 C12        -1.1800   -3.2200    1.3440 C.3       1   LIG102    0.0000
     16 C13        -1.2170   -3.7780   -0.0870 C.3       1   LIG102    0.0000
     17 C14        -1.0400   -2.6450   -1.1080 C.3       1   LIG102    0.0000
     18 C15         0.2800   -1.8980   -0.8580 C.3       1   LIG102    0.0000
     19 C16         3.6590    2.3030    1.3350 C.3       1   LIG102    0.0000
     20 C17         5.1810   -0.3410    1.1780 C.2       1   LIG102    0.0000
     21 N3          5.7260   -1.5680    1.1700 N.am      1   LIG102    0.0000
     22 O2          5.9770    0.6170    1.2740 O.2       1   LIG102    0.0000
     23 C18         4.1780    2.9540    0.0420 C.3       1   LIG102    0.0000
     24 F1          4.6090    4.2310    0.3010 F         1   LIG102    0.0000
     25 H1         -2.7280    1.2410    0.3880 H         1   LIG102    0.0000
     26 H2          1.5240    3.4920    0.4770 H         1   LIG102    0.0000
     27 H3         -0.5150    4.7080    0.1890 H         1   LIG102    0.0000
     28 H4          3.1060   -2.1900    0.8530 H         1   LIG102    0.0000
     29 H5          0.9610   -3.1870    1.5140 H         1   LIG102    0.0000
     30 H6          0.1250   -2.0650    2.6060 H         1   LIG102    0.0000
     31 H7         -1.2680   -4.0430    2.0530 H         1   LIG102    0.0000
     32 H8         -2.0190   -2.5370    1.4890 H         1   LIG102    0.0000
     33 H9         -2.1750   -4.2690   -0.2570 H         1   LIG102    0.0000
     34 H10        -0.4170   -4.5090   -0.2120 H         1   LIG102    0.0000
     35 H11        -1.0300   -3.0660   -2.1140 H         1   LIG102    0.0000
     36 H12        -1.8740   -1.9470   -1.0250 H         1   LIG102    0.0000
     37 H13         0.3620   -1.0850   -1.5810 H         1   LIG102    0.0000
     38 H14         1.1090   -2.5920   -1.0130 H         1   LIG102    0.0000
     39 H15         2.9400    2.9520    1.8290 H         1   LIG102    0.0000
     40 H16         4.4870    2.2100    2.0380 H         1   LIG102    0.0000
     41 H17         6.6870   -1.6640    1.2440 H         1   LIG102    0.0000
     42 H18         5.1630   -2.3530    1.0910 H         1   LIG102    0.0000
     43 H19         5.0090    2.3720   -0.3550 H         1   LIG102    0.0000
     44 H20         3.3840    2.9910   -0.7040 H         1   LIG102    0.0000
@<TRIPOS>BOND
     1    1    2 2
     2    1    6 1
     3    1   25 1
     4    2    3 1
     5    2    7 1
     6    3    4 2
     7    3   10 1
     8    4    5 1
     9    4   26 1
    10    5    6 2
    11    5   27 1
    12    7    8 1
    13    8    9 1
    14    8   14 1
    15    8   18 1
    16    9   10 2
    17    9   11 1
    18   10   13 1
    19   11   12 2
    20   11   28 1
    21   12   13 1
    22   12   20 1
    23   13   19 1
    24   14   15 1
    25   14   29 1
    26   14   30 1
    27   15   16 1
    28   15   31 1
    29   15   32 1
    30   16   17 1
    31   16   33 1
    32   16   34 1
    33   17   18 1
    34   17   35 1
    35   17   36 1
    36   18   37 1
    37   18   38 1
    38   19   23 1
    39   19   39 1
    40   19   40 1
    41   20   21 1
    42   20   22 2
    43   21   41 1
    44   21   42 1
    45   23   24 1
    46   23   43 1
    47   23   44 1
@<TRIPOS>SUBSTRUCTURE
     1   LIG102    1   GROUP 1   LIG 1
@<TRIPOS>MOLECULE
50778730
   28    30    1     0     0
SMALL
USER_CHARGES


@<TRIPOS>ATOM
      1 S1          8.3350   -6.7890    5.4850 S.o       1   LIG103    0.0000
      2 C1          5.2900   -5.3610    1.0460 C.3       1   LIG103    0.0000
      3 C2          6.5020   -6.2090    0.5620 C.3       1   LIG103    0.0000
      4 C3          7.2480   -6.3960    2.9630 C.2       1   LIG103    0.0000
      5 C4          7.4320   -6.6900    1.6130 C.2       1   LIG103    0.0000
      6 C5          8.5710   -7.4720    1.3980 C.2       1   LIG103    0.0000
      7 S2          9.4180   -7.8550    2.8620 S.3       1   LIG103    0.0000
      8 C6          8.2450   -6.9510    3.7600 C.2       1   LIG103    0.0000
      9 C7          9.9760   -7.4150    5.8840 C.3       1   LIG103    0.0000
     10 C8          5.2220   -5.1320    2.5010 C.2       1   LIG103    0.0000
     11 C9          6.1590   -5.6280    3.3970 C.2       1   LIG103    0.0000
     12 S3          5.7930   -5.1850    5.0310 S.3       1   LIG103    0.0000
     13 N1          4.4210   -4.3680    4.4890 N.2       1   LIG103    0.0000
     14 C10         4.2370   -4.4120    3.1610 C.2       1   LIG103    0.0000
     15 C11         9.0400   -7.9380    0.1600 C.2       1   LIG103    0.0000
     16 O1          8.4570   -7.6830   -0.9160 O.2       1   LIG103    0.0000
     17 N2         10.1490   -8.6860    0.1060 N.am      1   LIG103    0.0000
     18 O2          8.6450   -5.1350    5.6310 O.3       1   LIG103    0.0000
     19 H1          4.3740   -5.8650    0.7350 H         1   LIG103    0.0000
     20 H2          5.3300   -4.3910    0.5470 H         1   LIG103    0.0000
     21 H3          7.0720   -5.6070   -0.1470 H         1   LIG103    0.0000
     22 H4          6.1120   -7.0780    0.0290 H         1   LIG103    0.0000
     23 H5         10.1790   -7.2380    6.9390 H         1   LIG103    0.0000
     24 H6         10.0190   -8.4860    5.6810 H         1   LIG103    0.0000
     25 H7         10.7230   -6.8980    5.2820 H         1   LIG103    0.0000
     26 H8          3.4520   -3.9650    2.6880 H         1   LIG103    0.0000
     27 H9         10.4690   -9.0060   -0.7510 H         1   LIG103    0.0000
     28 H10        10.6300   -8.9050    0.9180 H         1   LIG103    0.0000
@<TRIPOS>BOND
     1    1    8 1
     2    1    9 1
     3    1   18 1
     4    2    3 1
     5    2   10 1
     6    2   19 1
     7    2   20 1
     8    3    5 1
     9    3   21 1
    10    3   22 1
    11    4    5 1
    12    4    8 2
    13    4   11 1
    14    5    6 2
    15    6    7 1
    16    6   15 1
    17    7    8 1
    18    9   23 1
    19    9   24 1
    20    9   25 1
    21   10   11 2
    22   10   14 1
    23   11   12 1
    24   12   13 1
    25   13   14 2
    26   14   26 1
    27   15   16 2
    28   15   17 1
    29   17   27 1
    30   17   28 1
@<TRIPOS>SUBSTRUCTURE
     1   LIG103    1   GROUP 1   LIG 1
@<TRIPOS>MOLECULE
692605
   34    36    1     0     0
SMALL
USER_CHARGES


@<TRIPOS>ATOM
      1 C1         -0.2350   -0.2200    0.4020 C.2       1   LIG104    0.0000
      2 C2         -0.6590    0.8500    1.2350 C.2       1   LIG104    0.0000
      3 O1          1.0160   -0.7680    0.5240 O.3       1   LIG104    0.0000
      4 C3          2.1070   -0.0080    1.0810 C.3       1   LIG104    0.0000
      5 C4          1.6050    0.8670    2.1620 C.2       1   LIG104    0.0000
      6 C5          0.2640    1.2350    2.2650 C.2       1   LIG104    0.0000
      7 C6          2.3010    1.4780    3.1880 C.2       1   LIG104    0.0000
      8 C7          1.3620    2.1330    3.9760 C.2       1   LIG104    0.0000
      9 N1          0.1330    1.9150    3.4380 N.2       1   LIG104    0.0000
     10 C8          1.6780    2.8490    5.1500 C.2       1   LIG104    0.0000
     11 O2          0.7950    3.4310    5.8160 O.2       1   LIG104    0.0000
     12 N2          2.9390    2.9530    5.5970 N.am      1   LIG104    0.0000
     13 C9         -1.9070    1.4640    0.9300 C.2       1   LIG104    0.0000
     14 C10        -2.7380    0.8770   -0.0450 C.2       1   LIG104    0.0000
     15 N3         -2.3230   -0.2070   -0.7400 N.2       1   LIG104    0.0000
     16 C11        -1.1030   -0.7590   -0.5570 C.2       1   LIG104    0.0000
     17 C12         3.1290   -1.0330    1.6070 C.3       1   LIG104    0.0000
     18 C13         2.7570    0.8350   -0.0320 C.3       1   LIG104    0.0000
     19 C14        -1.0780    2.1740    4.1510 C.3       1   LIG104    0.0000
     20 Cl1        -2.4080    2.9890    1.4810 Cl        1   LIG104    0.0000
     21 H1          3.3070    1.4200    3.3520 H         1   LIG104    0.0000
     22 H2          3.1200    3.4590    6.4040 H         1   LIG104    0.0000
     23 H3          3.6650    2.5270    5.1180 H         1   LIG104    0.0000
     24 H4         -3.6490    1.2820   -0.2710 H         1   LIG104    0.0000
     25 H5         -0.8130   -1.5570   -1.1230 H         1   LIG104    0.0000
     26 H6          4.0130   -0.5250    1.9950 H         1   LIG104    0.0000
     27 H7          2.6810   -1.6340    2.4000 H         1   LIG104    0.0000
     28 H8          3.4310   -1.6940    0.7930 H         1   LIG104    0.0000
     29 H9          3.6180    1.3780    0.3600 H         1   LIG104    0.0000
     30 H10         3.0880    0.1780   -0.8370 H         1   LIG104    0.0000
     31 H11         2.0350    1.5470   -0.4350 H         1   LIG104    0.0000
     32 H12        -0.9750    1.8470    5.1870 H         1   LIG104    0.0000
     33 H13        -1.2970    3.2420    4.1420 H         1   LIG104    0.0000
     34 H14        -1.9150    1.6140    3.7370 H         1   LIG104    0.0000
@<TRIPOS>BOND
     1    1    2 1
     2    1    3 1
     3    1   16 2
     4    2    6 1
     5    2   13 2
     6    3    4 1
     7    4    5 1
     8    4   17 1
     9    4   18 1
    10    5    6 2
    11    5    7 1
    12    6    9 1
    13    7    8 2
    14    7   21 1
    15    8    9 1
    16    8   10 1
    17    9   19 1
    18   10   11 2
    19   10   12 1
    20   12   22 1
    21   12   23 1
    22   13   14 1
    23   13   20 1
    24   14   15 2
    25   14   24 1
    26   15   16 1
    27   16   25 1
    28   17   26 1
    29   17   27 1
    30   17   28 1
    31   18   29 1
    32   18   30 1
    33   18   31 1
    34   19   32 1
    35   19   33 1
    36   19   34 1
@<TRIPOS>SUBSTRUCTURE
     1   LIG104    1   GROUP 1   LIG 1
@<TRIPOS>MOLECULE
692609
   45    48    1     0     0
SMALL
USER_CHARGES


@<TRIPOS>ATOM
      1 C1         -0.9510    1.3640   -0.2810 C.2       1   LIG105    0.0000
      2 C2         -1.5310    2.2140    0.6840 C.2       1   LIG105    0.0000
      3 O1          0.3790    1.0300   -0.2320 O.3       1   LIG105    0.0000
      4 C3          1.2850    1.4580    0.8140 C.3       1   LIG105    0.0000
      5 C4          0.6440    2.3700    1.8030 C.2       1   LIG105    0.0000
      6 C5         -0.7010    2.7020    1.7040 C.2       1   LIG105    0.0000
      7 C6          1.1430    3.0310    2.9300 C.2       1   LIG105    0.0000
      8 C7          0.0700    3.7490    3.4780 C.2       1   LIG105    0.0000
      9 N1         -1.0130    3.5240    2.7150 N.pl3     1   LIG105    0.0000
     10 C8          0.0310    4.5800    4.6130 C.2       1   LIG105    0.0000
     11 O2         -1.0440    5.1350    4.9270 O.2       1   LIG105    0.0000
     12 N2          1.0960    4.8170    5.3930 N.am      1   LIG105    0.0000
     13 C9         -2.8970    2.5460    0.6010 C.2       1   LIG105    0.0000
     14 C10        -3.6600    2.0150   -0.4520 C.2       1   LIG105    0.0000
     15 N3         -3.0740    1.2010   -1.3650 N.2       1   LIG105    0.0000
     16 C11        -1.7610    0.8640   -1.3130 C.2       1   LIG105    0.0000
     17 C12         1.7880    0.1690    1.4890 C.3       1   LIG105    0.0000
     18 C13         2.4590    2.1460    0.0930 C.3       1   LIG105    0.0000
     19 C14         2.4640    2.9940    3.4120 C.2       1   LIG105    0.0000
     20 C15         3.3940    3.9720    3.0040 C.2       1   LIG105    0.0000
     21 C16         4.7060    3.9550    3.5080 C.2       1   LIG105    0.0000
     22 C17         5.1040    2.9680    4.4340 C.2       1   LIG105    0.0000
     23 C18         4.1700    2.0000    4.8450 C.2       1   LIG105    0.0000
     24 C19         2.8570    2.0130    4.3430 C.2       1   LIG105    0.0000
     25 O3          6.3580    2.8900    4.9680 O.3       1   LIG105    0.0000
     26 C20         7.3900    3.8260    4.6450 C.3       1   LIG105    0.0000
     27 H1         -1.8900    3.9040    2.8770 H         1   LIG105    0.0000
     28 H2          1.0030    5.4020    6.1610 H         1   LIG105    0.0000
     29 H3          1.9520    4.4100    5.1960 H         1   LIG105    0.0000
     30 H4         -3.3360    3.1600    1.2890 H         1   LIG105    0.0000
     31 H5         -4.6520    2.2410   -0.5310 H         1   LIG105    0.0000
     32 H6         -1.3630    0.2490   -2.0230 H         1   LIG105    0.0000
     33 H7          2.6100    0.3860    2.1700 H         1   LIG105    0.0000
     34 H8          0.9760   -0.3060    2.0420 H         1   LIG105    0.0000
     35 H9          2.1440   -0.5230    0.7260 H         1   LIG105    0.0000
     36 H10         3.2770    2.3390    0.7860 H         1   LIG105    0.0000
     37 H11         2.8260    1.4950   -0.7020 H         1   LIG105    0.0000
     38 H12         2.1280    3.0870   -0.3490 H         1   LIG105    0.0000
     39 H13         3.1240    4.6980    2.3380 H         1   LIG105    0.0000
     40 H14         5.3670    4.6660    3.1990 H         1   LIG105    0.0000
     41 H15         4.4460    1.2840    5.5170 H         1   LIG105    0.0000
     42 H16         2.1940    1.3020    4.6590 H         1   LIG105    0.0000
     43 H17         8.2930    3.5580    5.1930 H         1   LIG105    0.0000
     44 H18         7.6060    3.7970    3.5760 H         1   LIG105    0.0000
     45 H19         7.0890    4.8350    4.9320 H         1   LIG105    0.0000
@<TRIPOS>BOND
     1    1    2 1
     2    1    3 1
     3    1   16 2
     4    2    6 1
     5    2   13 2
     6    3    4 1
     7    4    5 1
     8    4   17 1
     9    4   18 1
    10    5    6 2
    11    5    7 1
    12    6    9 1
    13    7    8 2
    14    7   19 1
    15    8    9 1
    16    8   10 1
    17    9   27 1
    18   10   11 2
    19   10   12 1
    20   12   28 1
    21   12   29 1
    22   13   14 1
    23   13   30 1
    24   14   15 2
    25   14   31 1
    26   15   16 1
    27   16   32 1
    28   17   33 1
    29   17   34 1
    30   17   35 1
    31   18   36 1
    32   18   37 1
    33   18   38 1
    34   19   20 2
    35   19   24 1
    36   20   21 1
    37   20   39 1
    38   21   22 2
    39   21   40 1
    40   22   23 1
    41   22   25 1
    42   23   24 2
    43   23   41 1
    44   24   42 1
    45   25   26 1
    46   26   43 1
    47   26   44 1
    48   26   45 1
@<TRIPOS>SUBSTRUCTURE
     1   LIG105    1   GROUP 1   LIG 1
@<TRIPOS>MOLECULE
692598
   30    32    1     0     0
SMALL
USER_CHARGES


@<TRIPOS>ATOM
      1 C1         -1.5850    0.5810    1.2100 C.2       1   LIG106    0.0000
      2 C2         -0.3470    0.1630    0.6970 C.2       1   LIG106    0.0000
      3 C3          0.8050    0.9150    1.0110 C.2       1   LIG106    0.0000
      4 C4          0.7000    2.0600    1.8240 C.2       1   LIG106    0.0000
      5 C5         -0.5640    2.4320    2.3090 C.2       1   LIG106    0.0000
      6 N1         -1.6530    1.6890    1.9910 N.2       1   LIG106    0.0000
      7 O1         -0.2760   -0.9560   -0.0920 O.3       1   LIG106    0.0000
      8 C6          0.9520   -1.4690   -0.6650 C.3       1   LIG106    0.0000
      9 C7          2.1480   -0.6520   -0.3150 C.2       1   LIG106    0.0000
     10 C8          2.0300    0.4760    0.4870 C.2       1   LIG106    0.0000
     11 C9          3.5020   -0.7750   -0.6430 C.2       1   LIG106    0.0000
     12 C10         4.1610    0.2940   -0.0200 C.2       1   LIG106    0.0000
     13 N2          3.2450    1.0180    0.6440 N.pl3     1   LIG106    0.0000
     14 C11         1.0790   -2.9090   -0.1340 C.3       1   LIG106    0.0000
     15 C12         0.7140   -1.4930   -2.1870 C.3       1   LIG106    0.0000
     16 C13         5.5240    0.6330   -0.0260 C.2       1   LIG106    0.0000
     17 O2          6.4530   -0.0870   -0.6880 O.3       1   LIG106    0.0000
     18 O3          5.9110    1.6410    0.6050 O.2       1   LIG106    0.0000
     19 Br1         4.2750   -2.1040   -1.7010 Br        1   LIG106    0.0000
     20 H1         -2.4320    0.0540    0.9980 H         1   LIG106    0.0000
     21 H2          1.5210    2.6180    2.0620 H         1   LIG106    0.0000
     22 H3         -0.6640    3.2580    2.8990 H         1   LIG106    0.0000
     23 H4          3.4400    1.8150    1.1610 H         1   LIG106    0.0000
     24 H5          1.8970   -3.4360   -0.6240 H         1   LIG106    0.0000
     25 H6          1.2540   -2.8940    0.9430 H         1   LIG106    0.0000
     26 H7          0.1530   -3.4500   -0.3300 H         1   LIG106    0.0000
     27 H8          1.5260   -2.0030   -2.7020 H         1   LIG106    0.0000
     28 H9         -0.2160   -2.0210   -2.3990 H         1   LIG106    0.0000
     29 H10         0.6310   -0.4730   -2.5670 H         1   LIG106    0.0000
     30 H11         7.3610    0.2690   -0.6000 H         1   LIG106    0.0000
@<TRIPOS>BOND
     1    1    2 2
     2    1    6 1
     3    1   20 1
     4    2    3 1
     5    2    7 1
     6    3    4 2
     7    3   10 1
     8    4    5 1
     9    4   21 1
    10    5    6 2
    11    5   22 1
    12    7    8 1
    13    8    9 1
    14    8   14 1
    15    8   15 1
    16    9   10 2
    17    9   11 1
    18   10   13 1
    19   11   12 2
    20   11   19 1
    21   12   13 1
    22   12   16 1
    23   13   23 1
    24   14   24 1
    25   14   25 1
    26   14   26 1
    27   15   27 1
    28   15   28 1
    29   15   29 1
    30   16   17 1
    31   16   18 2
    32   17   30 1
@<TRIPOS>SUBSTRUCTURE
     1   LIG106    1   GROUP 1   LIG 1
@<TRIPOS>MOLECULE
692594
   36    39    1     0     0
SMALL
USER_CHARGES


@<TRIPOS>ATOM
      1 C1         -0.5770    1.5570    2.8500 C.2       1   LIG107    0.0000
      2 C2          0.0180    1.0160    1.6990 C.2       1   LIG107    0.0000
      3 C3          1.2390    1.5660    1.2470 C.2       1   LIG107    0.0000
      4 C4          1.8340    2.6330    1.9460 C.2       1   LIG107    0.0000
      5 C5          1.1930    3.1330    3.0910 C.2       1   LIG107    0.0000
      6 N1          0.0220    2.5850    3.5020 N.2       1   LIG107    0.0000
      7 O1         -0.5890   -0.0260    1.0400 O.3       1   LIG107    0.0000
      8 C6         -0.0560   -0.6510   -0.1560 C.3       1   LIG107    0.0000
      9 C7          1.2240   -0.0420   -0.5890 C.2       1   LIG107    0.0000
     10 C8          1.8150    1.0090    0.0960 C.2       1   LIG107    0.0000
     11 C9          2.0490   -0.3430   -1.6660 C.2       1   LIG107    0.0000
     12 C10         3.1280    0.5390   -1.6070 C.2       1   LIG107    0.0000
     13 N2          2.9550    1.3360   -0.5360 N.pl3     1   LIG107    0.0000
     14 C11         4.2150    0.6090   -2.4880 C.2       1   LIG107    0.0000
     15 N3          4.3310   -0.2170   -3.5380 N.am      1   LIG107    0.0000
     16 O2          5.1110    1.4600   -2.3040 O.2       1   LIG107    0.0000
     17 C12         0.1480   -2.1500    0.1520 C.3       1   LIG107    0.0000
     18 C13        -1.1950   -2.8120    0.4980 C.3       1   LIG107    0.0000
     19 O3         -2.1270   -2.5910   -0.5580 O.3       1   LIG107    0.0000
     20 C14        -2.4120   -1.2290   -0.8710 C.3       1   LIG107    0.0000
     21 C15        -1.1160   -0.5060   -1.2700 C.3       1   LIG107    0.0000
     22 H1         -1.4590    1.1780    3.1970 H         1   LIG107    0.0000
     23 H2          2.7160    3.0430    1.6350 H         1   LIG107    0.0000
     24 H3          1.6060    3.9060    3.6130 H         1   LIG107    0.0000
     25 H4          1.8910   -1.0710   -2.3630 H         1   LIG107    0.0000
     26 H5          3.5640    2.0400   -0.2650 H         1   LIG107    0.0000
     27 H6          5.0980   -0.1400   -4.1260 H         1   LIG107    0.0000
     28 H7          3.6530   -0.8890   -3.7090 H         1   LIG107    0.0000
     29 H8          0.5680   -2.6580   -0.7170 H         1   LIG107    0.0000
     30 H9          0.8290   -2.2650    0.9970 H         1   LIG107    0.0000
     31 H10        -1.0460   -3.8840    0.6280 H         1   LIG107    0.0000
     32 H11        -1.5840   -2.3920    1.4270 H         1   LIG107    0.0000
     33 H12        -3.1160   -1.1910   -1.7020 H         1   LIG107    0.0000
     34 H13        -2.8560   -0.7370   -0.0040 H         1   LIG107    0.0000
     35 H14        -1.3340    0.5490   -1.4380 H         1   LIG107    0.0000
     36 H15        -0.7470   -0.9470   -2.1970 H         1   LIG107    0.0000
@<TRIPOS>BOND
     1    1    2 2
     2    1    6 1
     3    1   22 1
     4    2    3 1
     5    2    7 1
     6    3    4 2
     7    3   10 1
     8    4    5 1
     9    4   23 1
    10    5    6 2
    11    5   24 1
    12    7    8 1
    13    8    9 1
    14    8   17 1
    15    8   21 1
    16    9   10 2
    17    9   11 1
    18   10   13 1
    19   11   12 2
    20   11   25 1
    21   12   13 1
    22   12   14 1
    23   13   26 1
    24   14   15 1
    25   14   16 2
    26   15   27 1
    27   15   28 1
    28   17   18 1
    29   17   29 1
    30   17   30 1
    31   18   19 1
    32   18   31 1
    33   18   32 1
    34   19   20 1
    35   20   21 1
    36   20   33 1
    37   20   34 1
    38   21   35 1
    39   21   36 1
@<TRIPOS>SUBSTRUCTURE
     1   LIG107    1   GROUP 1   LIG 1
@<TRIPOS>MOLECULE
51419708
   53    58    1     0     0
SMALL
USER_CHARGES


@<TRIPOS>ATOM
      1 C1         15.0280  -10.1110    1.0390 C.2       1   LIG108    0.0000
      2 N1         15.3710  -10.8300   -0.0270 N.am      1   LIG108    0.0000
      3 C2         14.4600  -10.7300   -1.0950 C.3       1   LIG108    0.0000
      4 C3         13.4130   -9.7120   -0.6120 C.3       1   LIG108    0.0000
      5 C4         13.7690   -9.3740    0.8570 C.3       1   LIG108    0.0000
      6 C5         12.6540   -9.8650    1.8070 C.3       1   LIG108    0.0000
      7 C6         12.8870   -9.3820    3.2500 C.3       1   LIG108    0.0000
      8 N2         13.0380   -7.9580    3.3040 N.pl3     1   LIG108    0.0000
      9 C7         14.1190   -7.4460    2.5090 C.3       1   LIG108    0.0000
     10 C8         13.9410   -7.8490    1.0340 C.3       1   LIG108    0.0000
     11 O1         15.7180  -10.1010    2.0810 O.2       1   LIG108    0.0000
     12 C9         10.0170   -6.5080    4.8890 C.2       1   LIG108    0.0000
     13 C10        10.8370   -7.3570    4.1630 C.2       1   LIG108    0.0000
     14 C11        12.2350   -7.1450    4.0870 C.2       1   LIG108    0.0000
     15 C12        12.7490   -6.0370    4.8360 C.2       1   LIG108    0.0000
     16 C13        11.8470   -5.2030    5.5480 C.2       1   LIG108    0.0000
     17 N3         10.5140   -5.4500    5.5620 N.2       1   LIG108    0.0000
     18 N4          8.7000   -7.9620    3.9840 N.2       1   LIG108    0.0000
     19 N5          8.7520   -6.9230    4.7590 N.pl3     1   LIG108    0.0000
     20 C14         9.9510   -8.2610    3.5870 C.2       1   LIG108    0.0000
     21 N6         18.1980   -5.3710    5.6970 N.pl3     1   LIG108    0.0000
     22 N7         18.5050   -6.5710    6.0980 N.2       1   LIG108    0.0000
     23 C15        17.4010   -7.3410    6.1050 C.2       1   LIG108    0.0000
     24 C16        16.3430   -6.5570    5.6780 C.2       1   LIG108    0.0000
     25 C17        14.9800   -6.8310    5.4940 C.2       1   LIG108    0.0000
     26 C18        14.1350   -5.7940    5.0270 C.2       1   LIG108    0.0000
     27 C19        14.6890   -4.5100    4.7770 C.2       1   LIG108    0.0000
     28 C20        16.0630   -4.2570    4.9700 C.2       1   LIG108    0.0000
     29 C21        16.8800   -5.3040    5.4240 C.2       1   LIG108    0.0000
     30 C22        19.1570   -4.3310    5.5860 C.3       1   LIG108    0.0000
     31 H1         16.1670  -11.3820   -0.0550 H         1   LIG108    0.0000
     32 H2         14.9630  -10.3680   -1.9920 H         1   LIG108    0.0000
     33 H3         13.9980  -11.7000   -1.2860 H         1   LIG108    0.0000
     34 H4         13.4660   -8.8200   -1.2380 H         1   LIG108    0.0000
     35 H5         12.4140  -10.1430   -0.6900 H         1   LIG108    0.0000
     36 H6         12.6010  -10.9550    1.7940 H         1   LIG108    0.0000
     37 H7         11.7030   -9.4680    1.4540 H         1   LIG108    0.0000
     38 H8         12.0840   -9.7460    3.8890 H         1   LIG108    0.0000
     39 H9         13.8070   -9.8330    3.6220 H         1   LIG108    0.0000
     40 H10        14.1610   -6.3570    2.5220 H         1   LIG108    0.0000
     41 H11        15.0660   -7.8370    2.8790 H         1   LIG108    0.0000
     42 H12        14.8020   -7.5010    0.4610 H         1   LIG108    0.0000
     43 H13        13.0490   -7.3510    0.6530 H         1   LIG108    0.0000
     44 H14        12.1950   -4.4120    6.0940 H         1   LIG108    0.0000
     45 H15         7.9850   -6.4980    5.1720 H         1   LIG108    0.0000
     46 H16        10.1910   -9.0250    2.9590 H         1   LIG108    0.0000
     47 H17        17.3540   -8.3230    6.3760 H         1   LIG108    0.0000
     48 H18        14.6130   -7.7640    5.6920 H         1   LIG108    0.0000
     49 H19        14.0930   -3.7510    4.4420 H         1   LIG108    0.0000
     50 H20        16.4510   -3.3320    4.7820 H         1   LIG108    0.0000
     51 H21        18.7060   -3.4020    5.2350 H         1   LIG108    0.0000
     52 H22        19.6100   -4.1560    6.5620 H         1   LIG108    0.0000
     53 H23        19.9340   -4.6340    4.8830 H         1   LIG108    0.0000
@<TRIPOS>BOND
     1    1    2 1
     2    1    5 1
     3    1   11 2
     4    2    3 1
     5    2   31 1
     6    3    4 1
     7    3   32 1
     8    3   33 1
     9    4    5 1
    10    4   34 1
    11    4   35 1
    12    5    6 1
    13    5   10 1
    14    6    7 1
    15    6   36 1
    16    6   37 1
    17    7    8 1
    18    7   38 1
    19    7   39 1
    20    8    9 1
    21    8   14 1
    22    9   10 1
    23    9   40 1
    24    9   41 1
    25   10   42 1
    26   10   43 1
    27   12   13 1
    28   12   17 2
    29   12   19 1
    30   13   14 2
    31   13   20 1
    32   14   15 1
    33   15   16 2
    34   15   26 1
    35   16   17 1
    36   16   44 1
    37   18   19 1
    38   18   20 2
    39   19   45 1
    40   20   46 1
    41   21   22 1
    42   21   29 1
    43   21   30 1
    44   22   23 2
    45   23   24 1
    46   23   47 1
    47   24   25 1
    48   24   29 2
    49   25   26 2
    50   25   48 1
    51   26   27 1
    52   27   28 2
    53   27   49 1
    54   28   29 1
    55   28   50 1
    56   30   51 1
    57   30   52 1
    58   30   53 1
@<TRIPOS>SUBSTRUCTURE
     1   LIG108    1   GROUP 1   LIG 1
@<TRIPOS>MOLECULE
692686
   45    48    1     0     0
SMALL
USER_CHARGES


@<TRIPOS>ATOM
      1 C1         -0.6030    1.4950   -0.2560 C.2       1   LIG109    0.0000
      2 C2         -1.1030    2.4110    0.6940 C.2       1   LIG109    0.0000
      3 O1          0.7160    1.1180   -0.2610 O.3       1   LIG109    0.0000
      4 C3          1.7020    1.6010    0.6840 C.3       1   LIG109    0.0000
      5 C4          1.1400    2.5680    1.6690 C.2       1   LIG109    0.0000
      6 C5         -0.2010    2.9250    1.6370 C.2       1   LIG109    0.0000
      7 C6          1.7220    3.2700    2.7290 C.2       1   LIG109    0.0000
      8 C7          0.6990    4.0330    3.3110 C.2       1   LIG109    0.0000
      9 N1         -0.4340    3.7990    2.6260 N.pl3     1   LIG109    0.0000
     10 C8          0.7460    4.9070    4.4130 C.2       1   LIG109    0.0000
     11 O2         -0.2960    5.4990    4.7700 O.2       1   LIG109    0.0000
     12 N2          1.8610    5.1470    5.1180 N.am      1   LIG109    0.0000
     13 C9          3.0690    3.2120    3.1370 C.2       1   LIG109    0.0000
     14 C10        -2.4620    2.7780    0.6720 C.2       1   LIG109    0.0000
     15 C11        -3.2990    2.2190   -0.3060 C.2       1   LIG109    0.0000
     16 N3         -2.7910    1.3410   -1.2060 N.2       1   LIG109    0.0000
     17 C12        -1.4860    0.9660   -1.2120 C.2       1   LIG109    0.0000
     18 C13         2.2650    0.3480    1.3810 C.3       1   LIG109    0.0000
     19 C14         2.8120    2.2510   -0.1640 C.3       1   LIG109    0.0000
     20 C15         3.5050    2.2330    4.0610 C.2       1   LIG109    0.0000
     21 C16         4.8590    2.2200    4.4610 C.2       1   LIG109    0.0000
     22 C17         5.7630    3.1700    3.9580 C.2       1   LIG109    0.0000
     23 C18         5.3230    4.1460    3.0510 C.2       1   LIG109    0.0000
     24 C19         3.9800    4.1690    2.6440 C.2       1   LIG109    0.0000
     25 O3          2.5900    1.3270    4.5290 O.3       1   LIG109    0.0000
     26 C20         2.9390    0.2380    5.3860 C.3       1   LIG109    0.0000
     27 H1         -1.2930    4.2030    2.8250 H         1   LIG109    0.0000
     28 H2          1.8280    5.7610    5.8670 H         1   LIG109    0.0000
     29 H3          2.6940    4.7110    4.8850 H         1   LIG109    0.0000
     30 H4         -2.8420    3.4400    1.3510 H         1   LIG109    0.0000
     31 H5         -4.2870    2.4710   -0.3410 H         1   LIG109    0.0000
     32 H6         -1.1490    0.3030   -1.9090 H         1   LIG109    0.0000
     33 H7          3.1640    0.5920    1.9430 H         1   LIG109    0.0000
     34 H8          1.5190   -0.0740    2.0560 H         1   LIG109    0.0000
     35 H9          2.5200   -0.3990    0.6290 H         1   LIG109    0.0000
     36 H10         3.6750    2.4960    0.4530 H         1   LIG109    0.0000
     37 H11         3.1280    1.5540   -0.9410 H         1   LIG109    0.0000
     38 H12         2.4370    3.1590   -0.6390 H         1   LIG109    0.0000
     39 H13         5.1940    1.5190    5.1220 H         1   LIG109    0.0000
     40 H14         6.7400    3.1520    4.2540 H         1   LIG109    0.0000
     41 H15         5.9790    4.8380    2.6880 H         1   LIG109    0.0000
     42 H16         3.6720    4.8850    1.9830 H         1   LIG109    0.0000
     43 H17         2.0410   -0.3400    5.6030 H         1   LIG109    0.0000
     44 H18         3.6670   -0.4110    4.8960 H         1   LIG109    0.0000
     45 H19         3.3520    0.6120    6.3250 H         1   LIG109    0.0000
@<TRIPOS>BOND
     1    1    2 1
     2    1    3 1
     3    1   17 2
     4    2    6 1
     5    2   14 2
     6    3    4 1
     7    4    5 1
     8    4   18 1
     9    4   19 1
    10    5    6 2
    11    5    7 1
    12    6    9 1
    13    7    8 2
    14    7   13 1
    15    8    9 1
    16    8   10 1
    17    9   27 1
    18   10   11 2
    19   10   12 1
    20   12   28 1
    21   12   29 1
    22   13   20 2
    23   13   24 1
    24   14   15 1
    25   14   30 1
    26   15   16 2
    27   15   31 1
    28   16   17 1
    29   17   32 1
    30   18   33 1
    31   18   34 1
    32   18   35 1
    33   19   36 1
    34   19   37 1
    35   19   38 1
    36   20   21 1
    37   20   25 1
    38   21   22 2
    39   21   39 1
    40   22   23 1
    41   22   40 1
    42   23   24 2
    43   23   41 1
    44   24   42 1
    45   25   26 1
    46   26   43 1
    47   26   44 1
    48   26   45 1
@<TRIPOS>SUBSTRUCTURE
     1   LIG109    1   GROUP 1   LIG 1
@<TRIPOS>MOLECULE
692596
   33    35    1     0     0
SMALL
USER_CHARGES


@<TRIPOS>ATOM
      1 C1         -1.9970    0.2040    2.1370 C.2       1   LIG110    0.0000
      2 C2         -0.8140   -0.3450    1.6160 C.2       1   LIG110    0.0000
      3 C3          0.3630    0.4450    1.5480 C.2       1   LIG110    0.0000
      4 C4          0.2910    1.7760    2.0180 C.2       1   LIG110    0.0000
      5 C5         -0.9160    2.2780    2.5300 C.2       1   LIG110    0.0000
      6 N1         -2.0120    1.4860    2.5730 N.2       1   LIG110    0.0000
      7 O1         -0.8510   -1.6440    1.1840 O.3       1   LIG110    0.0000
      8 C6          0.2930   -2.3380    0.6490 C.3       1   LIG110    0.0000
      9 C7          1.5000   -1.4840    0.5840 C.2       1   LIG110    0.0000
     10 C8          1.5400   -0.1590    1.0100 C.2       1   LIG110    0.0000
     11 C9          2.7550   -1.8170    0.1150 C.2       1   LIG110    0.0000
     12 C10         3.5620   -0.6930    0.2540 C.2       1   LIG110    0.0000
     13 N2          2.8060    0.3020    0.7990 N.pl3     1   LIG110    0.0000
     14 C11         4.9180   -0.7040   -0.1380 C.2       1   LIG110    0.0000
     15 O2          5.4710   -1.8200   -0.6620 O.3       1   LIG110    0.0000
     16 O3          5.6710    0.2860   -0.0290 O.2       1   LIG110    0.0000
     17 C12         0.5450   -3.5550    1.5570 C.3       1   LIG110    0.0000
     18 C13        -0.0980   -2.8260   -0.7580 C.3       1   LIG110    0.0000
     19 C14         3.2580    1.6240    1.1050 C.3       1   LIG110    0.0000
     20 H1         -2.8450   -0.3600    2.1860 H         1   LIG110    0.0000
     21 H2          1.0920    2.3980    2.0010 H         1   LIG110    0.0000
     22 H3         -0.9680    3.2390    2.8690 H         1   LIG110    0.0000
     23 H4          3.0330   -2.7230   -0.2630 H         1   LIG110    0.0000
     24 H5          6.4150   -1.7140   -0.9000 H         1   LIG110    0.0000
     25 H6          1.3570   -4.1670    1.1590 H         1   LIG110    0.0000
     26 H7          0.8060   -3.2220    2.5630 H         1   LIG110    0.0000
     27 H8         -0.3590   -4.1610    1.6120 H         1   LIG110    0.0000
     28 H9          0.7020   -3.4290   -1.1890 H         1   LIG110    0.0000
     29 H10        -1.0020   -3.4340   -0.6930 H         1   LIG110    0.0000
     30 H11        -0.2950   -1.9720   -1.4070 H         1   LIG110    0.0000
     31 H12         4.3000    1.7940    0.8550 H         1   LIG110    0.0000
     32 H13         2.6690    2.3490    0.5420 H         1   LIG110    0.0000
     33 H14         3.1480    1.8070    2.1740 H         1   LIG110    0.0000
@<TRIPOS>BOND
     1    1    2 2
     2    1    6 1
     3    1   20 1
     4    2    3 1
     5    2    7 1
     6    3    4 2
     7    3   10 1
     8    4    5 1
     9    4   21 1
    10    5    6 2
    11    5   22 1
    12    7    8 1
    13    8    9 1
    14    8   17 1
    15    8   18 1
    16    9   10 2
    17    9   11 1
    18   10   13 1
    19   11   12 2
    20   11   23 1
    21   12   13 1
    22   12   14 1
    23   13   19 1
    24   14   15 1
    25   14   16 2
    26   15   24 1
    27   17   25 1
    28   17   26 1
    29   17   27 1
    30   18   28 1
    31   18   29 1
    32   18   30 1
    33   19   31 1
    34   19   32 1
    35   19   33 1
@<TRIPOS>SUBSTRUCTURE
     1   LIG110    1   GROUP 1   LIG 1
@<TRIPOS>MOLECULE
692588
   34    36    1     0     0
SMALL
USER_CHARGES


@<TRIPOS>ATOM
      1 C1         -1.8220    0.5460    1.2320 C.2       1   LIG111    0.0000
      2 C2         -0.6540   -0.0050    0.6800 C.2       1   LIG111    0.0000
      3 C3          0.5730    0.6650    0.8870 C.2       1   LIG111    0.0000
      4 C4          0.6080    1.8590    1.6320 C.2       1   LIG111    0.0000
      5 C5         -0.5920    2.3630    2.1590 C.2       1   LIG111    0.0000
      6 N1         -1.7550    1.6980    1.9450 N.2       1   LIG111    0.0000
      7 O1         -0.7250   -1.1730   -0.0440 O.3       1   LIG111    0.0000
      8 C6          0.4250   -1.8170   -0.6470 C.3       1   LIG111    0.0000
      9 C7          1.6870   -1.0790   -0.4080 C.2       1   LIG111    0.0000
     10 C8          1.7270    0.0970    0.3260 C.2       1   LIG111    0.0000
     11 C9          2.9870   -1.3530   -0.8120 C.2       1   LIG111    0.0000
     12 C10         3.7910   -0.3310   -0.3080 C.2       1   LIG111    0.0000
     13 N2          3.0010    0.5220    0.3700 N.pl3     1   LIG111    0.0000
     14 C11         0.5160   -3.2330   -0.0510 C.3       1   LIG111    0.0000
     15 C12         0.1460   -1.9210   -2.1580 C.3       1   LIG111    0.0000
     16 C13         5.1760   -0.1850   -0.4620 C.2       1   LIG111    0.0000
     17 N3          5.8970   -1.0860   -1.1660 N.am      1   LIG111    0.0000
     18 O2          5.7430    0.7990    0.0650 O.2       1   LIG111    0.0000
     19 C14         7.3000   -0.9770   -1.3450 C.3       1   LIG111    0.0000
     20 H1         -2.7210    0.0810    1.0970 H         1   LIG111    0.0000
     21 H2          1.4850    2.3570    1.7910 H         1   LIG111    0.0000
     22 H3         -0.5900    3.2270    2.7020 H         1   LIG111    0.0000
     23 H4          3.2900   -2.1530   -1.3690 H         1   LIG111    0.0000
     24 H5          3.3100    1.3230    0.8220 H         1   LIG111    0.0000
     25 H6          1.3250   -3.7940   -0.5210 H         1   LIG111    0.0000
     26 H7          0.6960   -3.1740    1.0240 H         1   LIG111    0.0000
     27 H8         -0.4240   -3.7600   -0.2200 H         1   LIG111    0.0000
     28 H9          0.9490   -2.4660   -2.6570 H         1   LIG111    0.0000
     29 H10        -0.7940   -2.4520   -2.3180 H         1   LIG111    0.0000
     30 H11         0.0640   -0.9230   -2.5910 H         1   LIG111    0.0000
     31 H12         5.4360   -1.8390   -1.5680 H         1   LIG111    0.0000
     32 H13         7.6500   -1.8130   -1.9490 H         1   LIG111    0.0000
     33 H14         7.5410   -0.0430   -1.8550 H         1   LIG111    0.0000
     34 H15         7.8030   -1.0010   -0.3770 H         1   LIG111    0.0000
@<TRIPOS>BOND
     1    1    2 2
     2    1    6 1
     3    1   20 1
     4    2    3 1
     5    2    7 1
     6    3    4 2
     7    3   10 1
     8    4    5 1
     9    4   21 1
    10    5    6 2
    11    5   22 1
    12    7    8 1
    13    8    9 1
    14    8   14 1
    15    8   15 1
    16    9   10 2
    17    9   11 1
    18   10   13 1
    19   11   12 2
    20   11   23 1
    21   12   13 1
    22   12   16 1
    23   13   24 1
    24   14   25 1
    25   14   26 1
    26   14   27 1
    27   15   28 1
    28   15   29 1
    29   15   30 1
    30   16   17 1
    31   16   18 2
    32   17   19 1
    33   17   31 1
    34   19   32 1
    35   19   33 1
    36   19   34 1
@<TRIPOS>SUBSTRUCTURE
     1   LIG111    1   GROUP 1   LIG 1
@<TRIPOS>MOLECULE
50778304
   36    39    1     0     0
SMALL
USER_CHARGES


@<TRIPOS>ATOM
      1 C1         11.1390   -8.8080    1.3310 C.3       1   LIG112    0.0000
      2 C2         10.4280   -8.5710   -0.0330 C.3       1   LIG112    0.0000
      3 C3          8.3170   -9.4960    0.9810 C.2       1   LIG112    0.0000
      4 C4          8.9980   -8.9600   -0.1090 C.2       1   LIG112    0.0000
      5 C5          8.1750   -8.8420   -1.2340 C.2       1   LIG112    0.0000
      6 S1          6.5560   -9.3960   -0.9480 S.3       1   LIG112    0.0000
      7 C6          6.9890   -9.7830    0.6830 C.2       1   LIG112    0.0000
      8 S2          5.8620  -10.4610    1.8140 S.3       1   LIG112    0.0000
      9 C7          4.3450  -10.6020    0.8530 C.3       1   LIG112    0.0000
     10 C8         10.2900   -9.3780    2.3940 C.2       1   LIG112    0.0000
     11 C9          8.9530   -9.7000    2.2120 C.2       1   LIG112    0.0000
     12 S3          8.2340  -10.3530    3.6450 S.3       1   LIG112    0.0000
     13 N1          9.7110  -10.1840    4.4420 N.2       1   LIG112    0.0000
     14 C10        10.6950   -9.6690    3.6890 C.2       1   LIG112    0.0000
     15 C11         8.5440   -8.3400   -2.4940 C.2       1   LIG112    0.0000
     16 O1          9.7140   -7.9420   -2.6990 O.2       1   LIG112    0.0000
     17 N2          7.5950   -8.3050   -3.4630 N.am      1   LIG112    0.0000
     18 C12         7.7500   -7.8610   -4.7360 C.2       1   LIG112    0.0000
     19 N3          8.9300   -7.3810   -5.2140 N.2       1   LIG112    0.0000
     20 C13         9.0970   -6.9350   -6.4840 C.2       1   LIG112    0.0000
     21 C14         8.0120   -6.9590   -7.3730 C.2       1   LIG112    0.0000
     22 C15         6.7760   -7.4470   -6.9190 C.2       1   LIG112    0.0000
     23 C16         6.6390   -7.9010   -5.5970 C.2       1   LIG112    0.0000
     24 H1         11.5350   -7.8540    1.6820 H         1   LIG112    0.0000
     25 H2         11.9800   -9.4840    1.1660 H         1   LIG112    0.0000
     26 H3         10.9740   -9.1280   -0.7960 H         1   LIG112    0.0000
     27 H4         10.5050   -7.5090   -0.2710 H         1   LIG112    0.0000
     28 H5          3.5600  -11.0270    1.4790 H         1   LIG112    0.0000
     29 H6          4.0350   -9.6150    0.5080 H         1   LIG112    0.0000
     30 H7          4.5120  -11.2530   -0.0060 H         1   LIG112    0.0000
     31 H8         11.6420   -9.5100    4.0340 H         1   LIG112    0.0000
     32 H9          6.7140   -8.6300   -3.2210 H         1   LIG112    0.0000
     33 H10        10.0050   -6.5850   -6.7890 H         1   LIG112    0.0000
     34 H11         8.1190   -6.6270   -8.3320 H         1   LIG112    0.0000
     35 H12         5.9760   -7.4720   -7.5510 H         1   LIG112    0.0000
     36 H13         5.7400   -8.2550   -5.2690 H         1   LIG112    0.0000
@<TRIPOS>BOND
     1    1    2 1
     2    1   10 1
     3    1   24 1
     4    1   25 1
     5    2    4 1
     6    2   26 1
     7    2   27 1
     8    3    4 1
     9    3    7 2
    10    3   11 1
    11    4    5 2
    12    5    6 1
    13    5   15 1
    14    6    7 1
    15    7    8 1
    16    8    9 1
    17    9   28 1
    18    9   29 1
    19    9   30 1
    20   10   11 2
    21   10   14 1
    22   11   12 1
    23   12   13 1
    24   13   14 2
    25   14   31 1
    26   15   16 2
    27   15   17 1
    28   17   18 1
    29   17   32 1
    30   18   19 2
    31   18   23 1
    32   19   20 1
    33   20   21 2
    34   20   33 1
    35   21   22 1
    36   21   34 1
    37   22   23 2
    38   22   35 1
    39   23   36 1
@<TRIPOS>SUBSTRUCTURE
     1   LIG112    1   GROUP 1   LIG 1
@<TRIPOS>MOLECULE
51419720
   48    53    1     0     0
SMALL
USER_CHARGES


@<TRIPOS>ATOM
      1 C1         12.7990   -8.8380    0.2900 C.3       1   LIG113    0.0000
      2 N1         11.9480  -10.0290    0.3800 N.2       1   LIG113    0.0000
      3 C2         13.0760  -10.9660    0.3160 C.3       1   LIG113    0.0000
      4 C3         14.0080   -9.7600    0.4980 C.3       1   LIG113    0.0000
      5 C4         15.1520   -9.6520   -0.4090 C.2       1   LIG113    0.0000
      6 N2         16.3330   -9.6550    0.2040 N.am      1   LIG113    0.0000
      7 C5         16.2320   -9.7490    1.6020 C.3       1   LIG113    0.0000
      8 C6         14.7220   -9.6470    1.8640 C.3       1   LIG113    0.0000
      9 O1         15.0410   -9.6150   -1.6540 O.2       1   LIG113    0.0000
     10 C7          9.2770  -10.3800   -2.1620 C.2       1   LIG113    0.0000
     11 C8         10.5340  -10.2530   -1.5860 C.2       1   LIG113    0.0000
     12 C9         10.6750  -10.1900   -0.1880 C.2       1   LIG113    0.0000
     13 C10         9.5040  -10.2530    0.6160 C.2       1   LIG113    0.0000
     14 C11         8.2520  -10.3800   -0.0420 C.2       1   LIG113    0.0000
     15 N3          8.1640  -10.4420   -1.3970 N.2       1   LIG113    0.0000
     16 N4          9.4100  -10.4150   -3.4960 N.pl3     1   LIG113    0.0000
     17 C12        11.4520  -10.2050   -2.6270 C.2       1   LIG113    0.0000
     18 C13        10.7150  -10.3100   -3.8040 C.2       1   LIG113    0.0000
     19 N5          9.9000  -10.1440    6.1660 N.pl3     1   LIG113    0.0000
     20 N6         10.8540  -11.0130    6.3380 N.2       1   LIG113    0.0000
     21 C14        11.2500  -11.4890    5.1420 C.2       1   LIG113    0.0000
     22 C15        10.4850  -10.8670    4.1710 C.2       1   LIG113    0.0000
     23 C16        10.4650  -10.9760    2.7730 C.2       1   LIG113    0.0000
     24 C17         9.5510  -10.1810    2.0360 C.2       1   LIG113    0.0000
     25 C18         8.6750   -9.3140    2.7440 C.2       1   LIG113    0.0000
     26 C19         8.7080   -9.2220    4.1500 C.2       1   LIG113    0.0000
     27 C20         9.6310  -10.0140    4.8520 C.2       1   LIG113    0.0000
     28 C21         9.2760   -9.4670    7.2460 C.3       1   LIG113    0.0000
     29 H1         12.6170   -8.0860    1.0580 H         1   LIG113    0.0000
     30 H2         12.7690   -8.3290   -0.6760 H         1   LIG113    0.0000
     31 H3         13.1800  -11.4910   -0.6350 H         1   LIG113    0.0000
     32 H4         13.1040  -11.7230    1.1000 H         1   LIG113    0.0000
     33 H5         17.1760   -9.6280   -0.2730 H         1   LIG113    0.0000
     34 H6         16.6240  -10.7080    1.9450 H         1   LIG113    0.0000
     35 H7         16.7640   -8.9280    2.0840 H         1   LIG113    0.0000
     36 H8         14.5030   -8.6770    2.3140 H         1   LIG113    0.0000
     37 H9         14.3980  -10.4380    2.5420 H         1   LIG113    0.0000
     38 H10         7.3880  -10.4340    0.5010 H         1   LIG113    0.0000
     39 H11         8.6830  -10.4970   -4.1320 H         1   LIG113    0.0000
     40 H12        12.4650  -10.1090   -2.5480 H         1   LIG113    0.0000
     41 H13        11.1030  -10.3040   -4.7480 H         1   LIG113    0.0000
     42 H14        11.9810  -12.1830    4.9830 H         1   LIG113    0.0000
     43 H15        11.0980  -11.6250    2.3050 H         1   LIG113    0.0000
     44 H16         8.0090   -8.7300    2.2340 H         1   LIG113    0.0000
     45 H17         8.0760   -8.5920    4.6440 H         1   LIG113    0.0000
     46 H18         8.4990   -8.7850    6.8990 H         1   LIG113    0.0000
     47 H19         8.8270  -10.2000    7.9160 H         1   LIG113    0.0000
     48 H20        10.0270   -8.8960    7.7930 H         1   LIG113    0.0000
@<TRIPOS>BOND
     1    1    2 1
     2    1    4 1
     3    1   29 1
     4    1   30 1
     5    2    3 1
     6    2   12 1
     7    3    4 1
     8    3   31 1
     9    3   32 1
    10    4    5 1
    11    4    8 1
    12    5    6 1
    13    5    9 2
    14    6    7 1
    15    6   33 1
    16    7    8 1
    17    7   34 1
    18    7   35 1
    19    8   36 1
    20    8   37 1
    21   10   11 1
    22   10   15 2
    23   10   16 1
    24   11   12 2
    25   11   17 1
    26   12   13 1
    27   13   14 2
    28   13   24 1
    29   14   15 1
    30   14   38 1
    31   16   18 1
    32   16   39 1
    33   17   18 2
    34   17   40 1
    35   18   41 1
    36   19   20 1
    37   19   27 1
    38   19   28 1
    39   20   21 2
    40   21   22 1
    41   21   42 1
    42   22   23 1
    43   22   27 2
    44   23   24 2
    45   23   43 1
    46   24   25 1
    47   25   26 2
    48   25   44 1
    49   26   27 1
    50   26   45 1
    51   28   46 1
    52   28   47 1
    53   28   48 1
@<TRIPOS>SUBSTRUCTURE
     1   LIG113    1   GROUP 1   LIG 1
@<TRIPOS>MOLECULE
692589
   37    40    1     0     0
SMALL
USER_CHARGES


@<TRIPOS>ATOM
      1 C1         -1.9850    2.7760    1.0820 C.2       1   LIG114    0.0000
      2 C2         -0.8630    1.9940    0.7650 C.2       1   LIG114    0.0000
      3 C3          0.3910    2.3610    1.3020 C.2       1   LIG114    0.0000
      4 C4          0.4990    3.4910    2.1340 C.2       1   LIG114    0.0000
      5 C5         -0.6560    4.2370    2.4150 C.2       1   LIG114    0.0000
      6 N1         -1.8480    3.8600    1.8860 N.2       1   LIG114    0.0000
      7 O1         -1.0040    0.8920   -0.0440 O.3       1   LIG114    0.0000
      8 C6          0.0980    0.0480   -0.4660 C.3       1   LIG114    0.0000
      9 C7          1.3880    0.4610    0.1380 C.2       1   LIG114    0.0000
     10 C8          1.4970    1.5640    0.9710 C.2       1   LIG114    0.0000
     11 C9          2.6580   -0.0870    0.0180 C.2       1   LIG114    0.0000
     12 C10         3.5130    0.7010    0.7880 C.2       1   LIG114    0.0000
     13 N2          2.7820    1.6830    1.3460 N.pl3     1   LIG114    0.0000
     14 C11         4.8920    0.5290    0.9680 C.2       1   LIG114    0.0000
     15 N3          5.5630   -0.4730    0.3810 N.am      1   LIG114    0.0000
     16 O2          5.5290    1.3240    1.6930 O.2       1   LIG114    0.0000
     17 C12        -0.2420   -1.4010   -0.0570 C.3       1   LIG114    0.0000
     18 C13        -1.5140   -1.8790   -0.7740 C.3       1   LIG114    0.0000
     19 N4         -1.3360   -1.8000   -2.2310 N.3       1   LIG114    0.0000
     20 C14        -1.1040   -0.4090   -2.6460 C.3       1   LIG114    0.0000
     21 C15         0.1860    0.1280   -2.0050 C.3       1   LIG114    0.0000
     22 H1         -2.9020    2.5310    0.7080 H         1   LIG114    0.0000
     23 H2          1.3970    3.7710    2.5310 H         1   LIG114    0.0000
     24 H3         -0.6010    5.0600    3.0160 H         1   LIG114    0.0000
     25 H4          2.9120   -0.9090   -0.5320 H         1   LIG114    0.0000
     26 H5          3.1340    2.3730    1.9300 H         1   LIG114    0.0000
     27 H6          6.5170   -0.5610    0.5290 H         1   LIG114    0.0000
     28 H7          5.0980   -1.1050   -0.1870 H         1   LIG114    0.0000
     29 H8          0.5770   -2.0700   -0.3250 H         1   LIG114    0.0000
     30 H9         -0.4030   -1.4500    1.0210 H         1   LIG114    0.0000
     31 H10        -1.7110   -2.9140   -0.4970 H         1   LIG114    0.0000
     32 H11        -2.3630   -1.2650   -0.4690 H         1   LIG114    0.0000
     33 H12        -2.2190   -2.0930   -2.6560 H         1   LIG114    0.0000
     34 H13        -1.0020   -0.3740   -3.7300 H         1   LIG114    0.0000
     35 H14        -1.9490    0.2150   -2.3510 H         1   LIG114    0.0000
     36 H15         0.3290    1.1650   -2.3110 H         1   LIG114    0.0000
     37 H16         1.0260   -0.4690   -2.3660 H         1   LIG114    0.0000
@<TRIPOS>BOND
     1    1    2 2
     2    1    6 1
     3    1   22 1
     4    2    3 1
     5    2    7 1
     6    3    4 2
     7    3   10 1
     8    4    5 1
     9    4   23 1
    10    5    6 2
    11    5   24 1
    12    7    8 1
    13    8    9 1
    14    8   17 1
    15    8   21 1
    16    9   10 2
    17    9   11 1
    18   10   13 1
    19   11   12 2
    20   11   25 1
    21   12   13 1
    22   12   14 1
    23   13   26 1
    24   14   15 1
    25   14   16 2
    26   15   27 1
    27   15   28 1
    28   17   18 1
    29   17   29 1
    30   17   30 1
    31   18   19 1
    32   18   31 1
    33   18   32 1
    34   19   20 1
    35   19   33 1
    36   20   21 1
    37   20   34 1
    38   20   35 1
    39   21   36 1
    40   21   37 1
@<TRIPOS>SUBSTRUCTURE
     1   LIG114    1   GROUP 1   LIG 1
@<TRIPOS>MOLECULE
692608
   53    57    1     0     0
SMALL
USER_CHARGES


@<TRIPOS>ATOM
      1 C1         -1.6020    1.7120    0.1270 C.2       1   LIG115    0.0000
      2 C2         -2.4670    1.7620    1.2430 C.2       1   LIG115    0.0000
      3 O1         -0.5390    2.5750    0.0020 O.3       1   LIG115    0.0000
      4 C3         -0.2570    3.6530    0.9330 C.3       1   LIG115    0.0000
      5 C4         -1.1720    3.6460    2.0980 C.2       1   LIG115    0.0000
      6 C5         -2.2140    2.7380    2.2180 C.2       1   LIG115    0.0000
      7 C6         -1.2160    4.4660    3.2190 C.2       1   LIG115    0.0000
      8 C7         -2.2870    4.0290    3.9980 C.2       1   LIG115    0.0000
      9 N1         -2.8640    2.9910    3.3660 N.pl3     1   LIG115    0.0000
     10 C8         -2.7130    4.5550    5.2240 C.2       1   LIG115    0.0000
     11 O2         -3.6970    4.0530    5.8090 O.2       1   LIG115    0.0000
     12 N2         -2.0930    5.5940    5.8030 N.am      1   LIG115    0.0000
     13 C9         -3.5370    0.8530    1.3470 C.2       1   LIG115    0.0000
     14 C10        -3.7240   -0.0910    0.3250 C.2       1   LIG115    0.0000
     15 N3         -2.8780   -0.1150   -0.7350 N.2       1   LIG115    0.0000
     16 C11        -1.8360    0.7450   -0.8640 C.2       1   LIG115    0.0000
     17 C12         1.2040    3.4960    1.3990 C.3       1   LIG115    0.0000
     18 C13         2.1670    3.6050    0.2080 C.3       1   LIG115    0.0000
     19 N4          2.0030    4.9090   -0.4690 N.3       1   LIG115    0.0000
     20 C14         0.6260    5.0400   -0.9870 C.3       1   LIG115    0.0000
     21 C15        -0.3870    4.9830    0.1650 C.3       1   LIG115    0.0000
     22 C16         2.9650    5.0550   -1.5850 C.3       1   LIG115    0.0000
     23 C17         4.4160    5.2520   -1.0990 C.3       1   LIG115    0.0000
     24 C18         4.5440    6.3640   -0.1350 C.2       1   LIG115    0.0000
     25 C19         4.2690    7.6880   -0.5350 C.2       1   LIG115    0.0000
     26 C20         4.3810    8.7480    0.3810 C.2       1   LIG115    0.0000
     27 C21         4.7720    8.4920    1.7060 C.2       1   LIG115    0.0000
     28 C22         5.0510    7.1770    2.1140 C.2       1   LIG115    0.0000
     29 C23         4.9370    6.1180    1.1970 C.2       1   LIG115    0.0000
     30 H1         -0.5830    5.2390    3.4260 H         1   LIG115    0.0000
     31 H2         -3.6350    2.5010    3.6930 H         1   LIG115    0.0000
     32 H3         -2.4150    5.9310    6.6530 H         1   LIG115    0.0000
     33 H4         -1.3270    6.0060    5.3750 H         1   LIG115    0.0000
     34 H5         -4.1730    0.8740    2.1460 H         1   LIG115    0.0000
     35 H6         -4.4940   -0.7580    0.3780 H         1   LIG115    0.0000
     36 H7         -1.2240    0.6880   -1.6780 H         1   LIG115    0.0000
     37 H8          1.3370    2.5230    1.8750 H         1   LIG115    0.0000
     38 H9          1.4560    4.2800    2.1170 H         1   LIG115    0.0000
     39 H10         3.1820    3.5090    0.5910 H         1   LIG115    0.0000
     40 H11         1.9760    2.7890   -0.4910 H         1   LIG115    0.0000
     41 H12         0.4130    4.2430   -1.7020 H         1   LIG115    0.0000
     42 H13         0.5160    6.0020   -1.4900 H         1   LIG115    0.0000
     43 H14        -0.1970    5.8240    0.8350 H         1   LIG115    0.0000
     44 H15        -1.3950    5.0750   -0.2440 H         1   LIG115    0.0000
     45 H16         2.9240    4.1730   -2.2260 H         1   LIG115    0.0000
     46 H17         2.6900    5.9230   -2.1870 H         1   LIG115    0.0000
     47 H18         4.7670    4.3190   -0.6570 H         1   LIG115    0.0000
     48 H19         5.0450    5.4630   -1.9650 H         1   LIG115    0.0000
     49 H20         3.9840    7.8820   -1.4960 H         1   LIG115    0.0000
     50 H21         4.1790    9.7030    0.0840 H         1   LIG115    0.0000
     51 H22         4.8530    9.2610    2.3720 H         1   LIG115    0.0000
     52 H23         5.3350    6.9900    3.0760 H         1   LIG115    0.0000
     53 H24         5.1370    5.1650    1.5020 H         1   LIG115    0.0000
@<TRIPOS>BOND
     1    1    2 1
     2    1    3 1
     3    1   16 2
     4    2    6 1
     5    2   13 2
     6    3    4 1
     7    4    5 1
     8    4   17 1
     9    4   21 1
    10    5    6 2
    11    5    7 1
    12    6    9 1
    13    7    8 2
    14    7   30 1
    15    8    9 1
    16    8   10 1
    17    9   31 1
    18   10   11 2
    19   10   12 1
    20   12   32 1
    21   12   33 1
    22   13   14 1
    23   13   34 1
    24   14   15 2
    25   14   35 1
    26   15   16 1
    27   16   36 1
    28   17   18 1
    29   17   37 1
    30   17   38 1
    31   18   19 1
    32   18   39 1
    33   18   40 1
    34   19   20 1
    35   19   22 1
    36   20   21 1
    37   20   41 1
    38   20   42 1
    39   21   43 1
    40   21   44 1
    41   22   23 1
    42   22   45 1
    43   22   46 1
    44   23   24 1
    45   23   47 1
    46   23   48 1
    47   24   25 2
    48   24   29 1
    49   25   26 1
    50   25   49 1
    51   26   27 2
    52   26   50 1
    53   27   28 1
    54   27   51 1
    55   28   29 2
    56   28   52 1
    57   29   53 1
@<TRIPOS>SUBSTRUCTURE
     1   LIG115    1   GROUP 1   LIG 1
@<TRIPOS>MOLECULE
51419719
   48    53    1     0     0
SMALL
USER_CHARGES


@<TRIPOS>ATOM
      1 C1         13.6720   -9.7520    0.7900 C.3       1   LIG116    0.0000
      2 N1         13.7380  -11.2000    0.9580 N.pl3     1   LIG116    0.0000
      3 C2         15.1750  -11.2630    1.2020 C.3       1   LIG116    0.0000
      4 C3         15.1520   -9.7230    1.2190 C.3       1   LIG116    0.0000
      5 C4         16.1290   -9.0030    0.2630 C.3       1   LIG116    0.0000
      6 N2         16.7980   -8.0470    1.0510 N.am      1   LIG116    0.0000
      7 C5         16.4290   -8.0660    2.3260 C.2       1   LIG116    0.0000
      8 C6         15.4170   -9.0730    2.5950 C.3       1   LIG116    0.0000
      9 O1         16.9070   -7.3060    3.1950 O.2       1   LIG116    0.0000
     10 C7         11.8210  -14.0720   -0.3540 C.2       1   LIG116    0.0000
     11 C8         12.8040  -13.1020   -0.2090 C.2       1   LIG116    0.0000
     12 C9         12.7530  -12.1920    0.8600 C.2       1   LIG116    0.0000
     13 C10        11.6790  -12.2900    1.7880 C.2       1   LIG116    0.0000
     14 C11        10.7080  -13.3040    1.5750 C.2       1   LIG116    0.0000
     15 N3         10.7970  -14.1630    0.5250 N.2       1   LIG116    0.0000
     16 N4         12.0900  -14.8040   -1.4440 N.pl3     1   LIG116    0.0000
     17 C12        13.6910  -13.2630   -1.2640 C.2       1   LIG116    0.0000
     18 C13        13.2160  -14.3360   -2.0140 C.2       1   LIG116    0.0000
     19 N5         11.4720   -8.8850    6.1830 N.pl3     1   LIG116    0.0000
     20 N6         12.7040   -8.9800    6.5960 N.2       1   LIG116    0.0000
     21 C14        13.3830   -9.8230    5.7960 C.2       1   LIG116    0.0000
     22 C15        12.5050  -10.2760    4.8260 C.2       1   LIG116    0.0000
     23 C16        12.6650  -11.1580    3.7480 C.2       1   LIG116    0.0000
     24 C17        11.5550  -11.4170    2.9040 C.2       1   LIG116    0.0000
     25 C18        10.3150  -10.7860    3.1920 C.2       1   LIG116    0.0000
     26 C19        10.1740   -9.9060    4.2850 C.2       1   LIG116    0.0000
     27 C20        11.2940   -9.6600    5.0950 C.2       1   LIG116    0.0000
     28 C21        10.5080   -8.0670    6.8280 C.3       1   LIG116    0.0000
     29 H1         12.9650   -9.2320    1.4380 H         1   LIG116    0.0000
     30 H2         13.4680   -9.4430   -0.2360 H         1   LIG116    0.0000
     31 H3         15.7470  -11.7160    0.3920 H         1   LIG116    0.0000
     32 H4         15.4700  -11.7550    2.1290 H         1   LIG116    0.0000
     33 H5         15.5870   -8.5050   -0.5430 H         1   LIG116    0.0000
     34 H6         16.8500   -9.7050   -0.1560 H         1   LIG116    0.0000
     35 H7         17.4680   -7.4390    0.7030 H         1   LIG116    0.0000
     36 H8         15.8020   -9.8020    3.3090 H         1   LIG116    0.0000
     37 H9         14.5180   -8.6010    2.9910 H         1   LIG116    0.0000
     38 H10         9.9240  -13.4090    2.2210 H         1   LIG116    0.0000
     39 H11        11.5580  -15.5470   -1.7700 H         1   LIG116    0.0000
     40 H12        14.5240  -12.7050   -1.4560 H         1   LIG116    0.0000
     41 H13        13.6500  -14.7050   -2.8610 H         1   LIG116    0.0000
     42 H14        14.3660  -10.0790    5.8890 H         1   LIG116    0.0000
     43 H15        13.5690  -11.6020    3.5830 H         1   LIG116    0.0000
     44 H16         9.5020  -10.9560    2.5970 H         1   LIG116    0.0000
     45 H17         9.2790   -9.4570    4.4770 H         1   LIG116    0.0000
     46 H18         9.5370   -8.1230    6.3350 H         1   LIG116    0.0000
     47 H19        10.3980   -8.3920    7.8630 H         1   LIG116    0.0000
     48 H20        10.8500   -7.0320    6.8150 H         1   LIG116    0.0000
@<TRIPOS>BOND
     1    1    2 1
     2    1    4 1
     3    1   29 1
     4    1   30 1
     5    2    3 1
     6    2   12 1
     7    3    4 1
     8    3   31 1
     9    3   32 1
    10    4    5 1
    11    4    8 1
    12    5    6 1
    13    5   33 1
    14    5   34 1
    15    6    7 1
    16    6   35 1
    17    7    8 1
    18    7    9 2
    19    8   36 1
    20    8   37 1
    21   10   11 1
    22   10   15 2
    23   10   16 1
    24   11   12 2
    25   11   17 1
    26   12   13 1
    27   13   14 2
    28   13   24 1
    29   14   15 1
    30   14   38 1
    31   16   18 1
    32   16   39 1
    33   17   18 2
    34   17   40 1
    35   18   41 1
    36   19   20 1
    37   19   27 1
    38   19   28 1
    39   20   21 2
    40   21   22 1
    41   21   42 1
    42   22   23 1
    43   22   27 2
    44   23   24 2
    45   23   43 1
    46   24   25 1
    47   25   26 2
    48   25   44 1
    49   26   27 1
    50   26   45 1
    51   28   46 1
    52   28   47 1
    53   28   48 1
@<TRIPOS>SUBSTRUCTURE
     1   LIG116    1   GROUP 1   LIG 1
@<TRIPOS>MOLECULE
50778305
   37    40    1     0     0
SMALL
USER_CHARGES


@<TRIPOS>ATOM
      1 C1          9.4830   -7.1830    1.1580 C.3       1   LIG117    0.0000
      2 C2         10.6450   -8.0720    0.6270 C.3       1   LIG117    0.0000
      3 C3         11.3910   -8.4050    3.0090 C.2       1   LIG117    0.0000
      4 C4         11.5620   -8.6380    1.6460 C.2       1   LIG117    0.0000
      5 C5         12.6720   -9.4510    1.3900 C.2       1   LIG117    0.0000
      6 S1         13.5080   -9.9280    2.8320 S.3       1   LIG117    0.0000
      7 C6         12.3650   -9.0350    3.7780 C.2       1   LIG117    0.0000
      8 S2         12.4460   -8.9480    5.5080 S.3       1   LIG117    0.0000
      9 C7         13.9040   -9.9280    5.9050 C.3       1   LIG117    0.0000
     10 C8          9.4230   -7.0320    2.6250 C.2       1   LIG117    0.0000
     11 C9         10.3370   -7.6180    3.4880 C.2       1   LIG117    0.0000
     12 S3         10.0000   -7.2500    5.1470 S.3       1   LIG117    0.0000
     13 N1          8.6680   -6.3390    4.6560 N.2       1   LIG117    0.0000
     14 C10         8.4760   -6.3040    3.3290 C.2       1   LIG117    0.0000
     15 C11        13.1240   -9.8770    0.1290 C.2       1   LIG117    0.0000
     16 O1         12.5180   -9.5380   -0.9130 O.2       1   LIG117    0.0000
     17 N2         14.2210  -10.6780    0.0840 N.am      1   LIG117    0.0000
     18 C12        14.8100  -11.1950   -1.0260 C.2       1   LIG117    0.0000
     19 C13        15.3570  -12.4900   -0.9310 C.2       1   LIG117    0.0000
     20 C14        16.0010  -13.0780   -2.0330 C.2       1   LIG117    0.0000
     21 C15        16.1140  -12.3690   -3.2410 C.2       1   LIG117    0.0000
     22 C16        15.5860  -11.0720   -3.3440 C.2       1   LIG117    0.0000
     23 C17        14.9420  -10.4850   -2.2400 C.2       1   LIG117    0.0000
     24 H1          8.5390   -7.6140    0.8190 H         1   LIG117    0.0000
     25 H2          9.5800   -6.1900    0.7160 H         1   LIG117    0.0000
     26 H3         11.2350   -7.4710   -0.0670 H         1   LIG117    0.0000
     27 H4         10.2060   -8.9000    0.0680 H         1   LIG117    0.0000
     28 H5         14.0450   -9.9410    6.9860 H         1   LIG117    0.0000
     29 H6         13.7700  -10.9490    5.5480 H         1   LIG117    0.0000
     30 H7         14.7820   -9.4880    5.4320 H         1   LIG117    0.0000
     31 H8          7.7120   -5.7930    2.8850 H         1   LIG117    0.0000
     32 H9         14.5990  -10.9420    0.9370 H         1   LIG117    0.0000
     33 H10        15.2850  -13.0120   -0.0570 H         1   LIG117    0.0000
     34 H11        16.3890  -14.0190   -1.9560 H         1   LIG117    0.0000
     35 H12        16.5830  -12.7950   -4.0410 H         1   LIG117    0.0000
     36 H13        15.6730  -10.5530   -4.2180 H         1   LIG117    0.0000
     37 H14        14.5770   -9.5360   -2.3240 H         1   LIG117    0.0000
@<TRIPOS>BOND
     1    1    2 1
     2    1   10 1
     3    1   24 1
     4    1   25 1
     5    2    4 1
     6    2   26 1
     7    2   27 1
     8    3    4 1
     9    3    7 2
    10    3   11 1
    11    4    5 2
    12    5    6 1
    13    5   15 1
    14    6    7 1
    15    7    8 1
    16    8    9 1
    17    9   28 1
    18    9   29 1
    19    9   30 1
    20   10   11 2
    21   10   14 1
    22   11   12 1
    23   12   13 1
    24   13   14 2
    25   14   31 1
    26   15   16 2
    27   15   17 1
    28   17   18 1
    29   17   32 1
    30   18   19 2
    31   18   23 1
    32   19   20 1
    33   19   33 1
    34   20   21 2
    35   20   34 1
    36   21   22 1
    37   21   35 1
    38   22   23 2
    39   22   36 1
    40   23   37 1
@<TRIPOS>SUBSTRUCTURE
     1   LIG117    1   GROUP 1   LIG 1
@<TRIPOS>MOLECULE
51419714
   50    55    1     0     0
SMALL
USER_CHARGES


@<TRIPOS>ATOM
      1 C1         15.4670  -12.2910    1.8990 C.2       1   LIG118    0.0000
      2 N1         16.4610  -13.1750    1.8610 N.am      1   LIG118    0.0000
      3 C2         16.6650  -13.7410    0.5880 C.3       1   LIG118    0.0000
      4 C3         15.6080  -13.0720   -0.3070 C.3       1   LIG118    0.0000
      5 C4         14.8090  -12.1060    0.6020 C.3       1   LIG118    0.0000
      6 C5         14.9240  -10.6400    0.1340 C.3       1   LIG118    0.0000
      7 C6         14.1520  -10.4090   -1.1760 C.3       1   LIG118    0.0000
      8 N2         12.7810  -10.8110   -1.0270 N.pl3     1   LIG118    0.0000
      9 C7         12.6070  -12.1820   -0.6460 C.3       1   LIG118    0.0000
     10 C8         13.3160  -12.4870    0.6860 C.3       1   LIG118    0.0000
     11 O1         15.1380  -11.6900    2.9450 O.2       1   LIG118    0.0000
     12 C9          9.5490   -9.0270   -0.6160 C.2       1   LIG118    0.0000
     13 C10        10.5850   -9.9390   -0.4170 C.2       1   LIG118    0.0000
     14 C11        11.7190   -9.9540   -1.2680 C.2       1   LIG118    0.0000
     15 C12        11.7120   -9.0200   -2.3550 C.2       1   LIG118    0.0000
     16 C13        10.6270   -8.1160   -2.4860 C.2       1   LIG118    0.0000
     17 N3          9.5810   -8.1360   -1.6260 N.2       1   LIG118    0.0000
     18 N4          8.6140   -9.1810    0.3310 N.pl3     1   LIG118    0.0000
     19 C14        10.2360  -10.6420    0.7340 C.2       1   LIG118    0.0000
     20 C15         9.0060  -10.1560    1.1650 C.2       1   LIG118    0.0000
     21 C16        14.5450   -9.0630   -5.4630 C.2       1   LIG118    0.0000
     22 C17        14.2920   -7.8410   -4.8290 C.2       1   LIG118    0.0000
     23 C18        13.3420   -7.8370   -3.7920 C.2       1   LIG118    0.0000
     24 C19        12.6730   -9.0240   -3.4010 C.2       1   LIG118    0.0000
     25 C20        12.9780  -10.2160   -4.0980 C.2       1   LIG118    0.0000
     26 N5         13.9000  -10.1830   -5.0910 N.pl3     1   LIG118    0.0000
     27 N6         14.3040  -11.1680   -5.8220 N.2       1   LIG118    0.0000
     28 C21        15.2190  -10.6580   -6.6670 C.2       1   LIG118    0.0000
     29 N7         15.3880   -9.3410   -6.4630 N.2       1   LIG118    0.0000
     30 H1         16.9910  -13.4060    2.6390 H         1   LIG118    0.0000
     31 H2         17.6710  -13.5180    0.2310 H         1   LIG118    0.0000
     32 H3         16.5100  -14.8200    0.6260 H         1   LIG118    0.0000
     33 H4         16.1050  -12.5310   -1.1130 H         1   LIG118    0.0000
     34 H5         14.9590  -13.8360   -0.7360 H         1   LIG118    0.0000
     35 H6         15.9730  -10.3780   -0.0190 H         1   LIG118    0.0000
     36 H7         14.5070   -9.9800    0.8970 H         1   LIG118    0.0000
     37 H8         14.2510   -9.3490   -1.4050 H         1   LIG118    0.0000
     38 H9         14.6190  -10.9880   -1.9740 H         1   LIG118    0.0000
     39 H10        11.5600  -12.4730   -0.5770 H         1   LIG118    0.0000
     40 H11        13.0530  -12.8040   -1.4230 H         1   LIG118    0.0000
     41 H12        13.2130  -13.5490    0.9130 H         1   LIG118    0.0000
     42 H13        12.8450  -11.9100    1.4820 H         1   LIG118    0.0000
     43 H14        10.6000   -7.4470   -3.2590 H         1   LIG118    0.0000
     44 H15         7.7990   -8.6620    0.4070 H         1   LIG118    0.0000
     45 H16        10.7730  -11.3740    1.1930 H         1   LIG118    0.0000
     46 H17         8.4940  -10.4780    1.9870 H         1   LIG118    0.0000
     47 H18        14.7780   -6.9890   -5.1080 H         1   LIG118    0.0000
     48 H19        13.1450   -6.9570   -3.3130 H         1   LIG118    0.0000
     49 H20        12.5170  -11.0960   -3.8610 H         1   LIG118    0.0000
     50 H21        15.7190  -11.2010   -7.3710 H         1   LIG118    0.0000
@<TRIPOS>BOND
     1    1    2 1
     2    1    5 1
     3    1   11 2
     4    2    3 1
     5    2   30 1
     6    3    4 1
     7    3   31 1
     8    3   32 1
     9    4    5 1
    10    4   33 1
    11    4   34 1
    12    5    6 1
    13    5   10 1
    14    6    7 1
    15    6   35 1
    16    6   36 1
    17    7    8 1
    18    7   37 1
    19    7   38 1
    20    8    9 1
    21    8   14 1
    22    9   10 1
    23    9   39 1
    24    9   40 1
    25   10   41 1
    26   10   42 1
    27   12   13 1
    28   12   17 2
    29   12   18 1
    30   13   14 2
    31   13   19 1
    32   14   15 1
    33   15   16 2
    34   15   24 1
    35   16   17 1
    36   16   43 1
    37   18   20 1
    38   18   44 1
    39   19   20 2
    40   19   45 1
    41   20   46 1
    42   21   22 1
    43   21   26 1
    44   21   29 2
    45   22   23 2
    46   22   47 1
    47   23   24 1
    48   23   48 1
    49   24   25 2
    50   25   26 1
    51   25   49 1
    52   26   27 1
    53   27   28 2
    54   28   29 1
    55   28   50 1
@<TRIPOS>SUBSTRUCTURE
     1   LIG118    1   GROUP 1   LIG 1
@<TRIPOS>MOLECULE
50778315
   28    30    1     0     0
SMALL
USER_CHARGES


@<TRIPOS>ATOM
      1 C1          6.9660   -6.0130   -0.2960 C.3       1   LIG119    0.0000
      2 C2          7.9310   -5.6570    0.8770 C.3       1   LIG119    0.0000
      3 C3          6.9220   -3.3430    0.9460 C.2       1   LIG119    0.0000
      4 C4          7.8280   -4.2810    1.4360 C.2       1   LIG119    0.0000
      5 C5          8.5930   -3.7590    2.4840 C.2       1   LIG119    0.0000
      6 S1          8.1960   -2.1130    2.8640 S.3       1   LIG119    0.0000
      7 C6          6.9980   -2.1270    1.6130 C.2       1   LIG119    0.0000
      8 S2          6.0000   -0.7590    1.2380 S.3       1   LIG119    0.0000
      9 C7          6.5490    0.4880    2.4160 C.3       1   LIG119    0.0000
     10 C8          9.5940   -4.4360    3.1980 C.2       1   LIG119    0.0000
     11 O1          9.9060   -5.6220    2.9530 O.2       1   LIG119    0.0000
     12 N1         10.2520   -3.8100    4.1810 N.am      1   LIG119    0.0000
     13 C9          6.0700   -4.9160   -0.6990 C.2       1   LIG119    0.0000
     14 C10         6.0610   -3.6690   -0.1070 C.2       1   LIG119    0.0000
     15 N2          5.1230   -2.9410   -0.7310 N.pl3     1   LIG119    0.0000
     16 N3          4.5480   -3.6370   -1.6650 N.2       1   LIG119    0.0000
     17 C11         5.0980   -4.8650   -1.6850 C.2       1   LIG119    0.0000
     18 H1          6.3540   -6.8650    0.0030 H         1   LIG119    0.0000
     19 H2          7.5620   -6.3060   -1.1610 H         1   LIG119    0.0000
     20 H3          8.9530   -5.8040    0.5250 H         1   LIG119    0.0000
     21 H4          7.7490   -6.3660    1.6860 H         1   LIG119    0.0000
     22 H5          5.9750    1.4020    2.2660 H         1   LIG119    0.0000
     23 H6          6.3920    0.1270    3.4330 H         1   LIG119    0.0000
     24 H7          7.6080    0.6980    2.2620 H         1   LIG119    0.0000
     25 H8         10.9420   -4.2810    4.6720 H         1   LIG119    0.0000
     26 H9         10.0390   -2.8900    4.4020 H         1   LIG119    0.0000
     27 H10         4.9050   -2.0210   -0.5140 H         1   LIG119    0.0000
     28 H11         4.8440   -5.6250   -2.3160 H         1   LIG119    0.0000
@<TRIPOS>BOND
     1    1    2 1
     2    1   13 1
     3    1   18 1
     4    1   19 1
     5    2    4 1
     6    2   20 1
     7    2   21 1
     8    3    4 1
     9    3    7 2
    10    3   14 1
    11    4    5 2
    12    5    6 1
    13    5   10 1
    14    6    7 1
    15    7    8 1
    16    8    9 1
    17    9   22 1
    18    9   23 1
    19    9   24 1
    20   10   11 2
    21   10   12 1
    22   12   25 1
    23   12   26 1
    24   13   14 2
    25   13   17 1
    26   14   15 1
    27   15   16 1
    28   15   27 1
    29   16   17 2
    30   17   28 1
@<TRIPOS>SUBSTRUCTURE
     1   LIG119    1   GROUP 1   LIG 1
@<TRIPOS>MOLECULE
692687
   44    48    1     0     0
SMALL
USER_CHARGES


@<TRIPOS>ATOM
      1 C1         -2.3750    1.3500   -0.7900 C.2       1   LIG120    0.0000
      2 C2         -3.0110    1.5040    0.4570 C.2       1   LIG120    0.0000
      3 O1         -1.3960    0.4100   -0.9660 O.3       1   LIG120    0.0000
      4 C3         -1.1320   -0.6670   -0.0330 C.3       1   LIG120    0.0000
      5 C4         -1.7740   -0.4510    1.3050 C.2       1   LIG120    0.0000
      6 C5         -2.6420    0.6220    1.4830 C.2       1   LIG120    0.0000
      7 C6         -1.6220   -1.0650    2.5640 C.2       1   LIG120    0.0000
      8 C7         -2.4400   -0.3330    3.4480 C.2       1   LIG120    0.0000
      9 N1         -3.0220    0.6610    2.7630 N.pl3     1   LIG120    0.0000
     10 C8         -2.7650   -0.5440    4.8040 C.2       1   LIG120    0.0000
     11 O2         -3.4860    0.2900    5.3930 O.2       1   LIG120    0.0000
     12 N2         -2.4030   -1.6260    5.5060 N.am      1   LIG120    0.0000
     13 C9         -3.9630    2.5260    0.6390 C.2       1   LIG120    0.0000
     14 C10        -4.2710    3.3660   -0.4430 C.2       1   LIG120    0.0000
     15 N3         -3.6440    3.1890   -1.6330 N.2       1   LIG120    0.0000
     16 C11        -2.7150    2.2220   -1.8370 C.2       1   LIG120    0.0000
     17 C12        -1.6330   -1.9360   -0.7580 C.3       1   LIG120    0.0000
     18 C13         0.4060   -0.6940    0.0730 C.3       1   LIG120    0.0000
     19 C14         1.0130   -4.2220    3.5780 C.2       1   LIG120    0.0000
     20 N4          1.7290   -5.3520    3.6590 N.pl3     1   LIG120    0.0000
     21 N5          1.3950   -6.1690    2.7020 N.2       1   LIG120    0.0000
     22 C15         0.4360   -5.5940    1.9500 C.2       1   LIG120    0.0000
     23 C16         0.1730   -4.3430    2.4850 C.2       1   LIG120    0.0000
     24 C17        -0.7190   -3.3210    2.1270 C.2       1   LIG120    0.0000
     25 C18        -0.7520   -2.1360    2.9010 C.2       1   LIG120    0.0000
     26 C19         0.1110   -2.0330    4.0260 C.2       1   LIG120    0.0000
     27 C20         1.0010   -3.0700    4.3740 C.2       1   LIG120    0.0000
     28 H1         -3.6380    1.3070    3.1430 H         1   LIG120    0.0000
     29 H2         -2.6790   -1.7070    6.4320 H         1   LIG120    0.0000
     30 H3         -1.8920   -2.3350    5.0910 H         1   LIG120    0.0000
     31 H4         -4.4310    2.6590    1.5370 H         1   LIG120    0.0000
     32 H5         -4.9620    4.1090   -0.3350 H         1   LIG120    0.0000
     33 H6         -2.2600    2.1340   -2.7460 H         1   LIG120    0.0000
     34 H7         -0.9810   -2.7820   -0.5530 H         1   LIG120    0.0000
     35 H8         -2.6550   -2.1760   -0.4610 H         1   LIG120    0.0000
     36 H9         -1.6170   -1.7690   -1.8360 H         1   LIG120    0.0000
     37 H10         0.7450   -1.5570    0.6440 H         1   LIG120    0.0000
     38 H11         0.8360   -0.7510   -0.9280 H         1   LIG120    0.0000
     39 H12         0.7610    0.2180    0.5550 H         1   LIG120    0.0000
     40 H13         2.3980   -5.5370    4.3370 H         1   LIG120    0.0000
     41 H14        -0.0130   -6.0070    1.1320 H         1   LIG120    0.0000
     42 H15        -1.3650   -3.4630    1.3550 H         1   LIG120    0.0000
     43 H16         0.1130   -1.1830    4.5940 H         1   LIG120    0.0000
     44 H17         1.6210   -2.9820    5.1790 H         1   LIG120    0.0000
@<TRIPOS>BOND
     1    1    2 1
     2    1    3 1
     3    1   16 2
     4    2    6 1
     5    2   13 2
     6    3    4 1
     7    4    5 1
     8    4   17 1
     9    4   18 1
    10    5    6 2
    11    5    7 1
    12    6    9 1
    13    7    8 2
    14    7   25 1
    15    8    9 1
    16    8   10 1
    17    9   28 1
    18   10   11 2
    19   10   12 1
    20   12   29 1
    21   12   30 1
    22   13   14 1
    23   13   31 1
    24   14   15 2
    25   14   32 1
    26   15   16 1
    27   16   33 1
    28   17   34 1
    29   17   35 1
    30   17   36 1
    31   18   37 1
    32   18   38 1
    33   18   39 1
    34   19   20 1
    35   19   23 1
    36   19   27 2
    37   20   21 1
    38   20   40 1
    39   21   22 2
    40   22   23 1
    41   22   41 1
    42   23   24 2
    43   24   25 1
    44   24   42 1
    45   25   26 2
    46   26   27 1
    47   26   43 1
    48   27   44 1
@<TRIPOS>SUBSTRUCTURE
     1   LIG120    1   GROUP 1   LIG 1
@<TRIPOS>MOLECULE
51398017
   59    63    1     0     0
SMALL
USER_CHARGES


@<TRIPOS>ATOM
      1 C1         30.0670  -14.4450   -1.0540 C.2       1   LIG121    0.0000
      2 C2         29.8080  -15.7700   -0.6720 C.2       1   LIG121    0.0000
      3 C3         30.8610  -16.6960   -0.4750 C.2       1   LIG121    0.0000
      4 C4         32.1980  -16.2520   -0.6570 C.2       1   LIG121    0.0000
      5 C5         32.4470  -14.9160   -1.0400 C.2       1   LIG121    0.0000
      6 C6         31.3890  -14.0160   -1.2390 C.2       1   LIG121    0.0000
      7 C7         30.5780  -18.0270   -0.0540 C.2       1   LIG121    0.0000
      8 C8         29.4930  -18.8020   -0.5270 C.2       1   LIG121    0.0000
      9 C9         29.3280  -20.0890    0.0060 C.2       1   LIG121    0.0000
     10 N1         30.1920  -20.5630    0.9340 N.2       1   LIG121    0.0000
     11 C10        31.2390  -19.8310    1.3790 C.2       1   LIG121    0.0000
     12 N2         31.3980  -18.5850    0.8740 N.2       1   LIG121    0.0000
     13 N3         32.0510  -20.4040    2.3030 N.pl3     1   LIG121    0.0000
     14 C11        33.1900  -19.9240    2.8820 C.2       1   LIG121    0.0000
     15 C12        33.8060  -18.6840    2.6070 C.2       1   LIG121    0.0000
     16 C13        34.9820  -20.3910    4.4860 C.2       1   LIG121    0.0000
     17 C14        33.7950  -20.7670    3.8340 C.2       1   LIG121    0.0000
     18 C15        35.6140  -19.1640    4.1910 C.2       1   LIG121    0.0000
     19 C16        34.9980  -18.3110    3.2490 C.2       1   LIG121    0.0000
     20 O1         35.5400  -17.0980    2.9490 O.3       1   LIG121    0.0000
     21 C17        36.6980  -16.6750    3.5380 C.2       1   LIG121    0.0000
     22 C18        37.4010  -17.4770    4.4860 C.2       1   LIG121    0.0000
     23 C19        36.8260  -18.7300    4.8130 C.2       1   LIG121    0.0000
     24 N4         37.4030  -19.5490    5.7460 N.pl3     1   LIG121    0.0000
     25 O2         37.0950  -15.5500    3.1630 O.2       1   LIG121    0.0000
     26 C20        37.2930  -19.2750    7.1440 C.3       1   LIG121    0.0000
     27 C21        36.8260  -20.5470    7.8650 C.3       1   LIG121    0.0000
     28 O3         37.7210  -21.6130    7.5460 O.3       1   LIG121    0.0000
     29 C22        37.8570  -21.9220    6.1600 C.3       1   LIG121    0.0000
     30 C23        38.2200  -20.6580    5.3600 C.3       1   LIG121    0.0000
     31 O4         33.2240  -17.1430   -0.4790 O.3       1   LIG121    0.0000
     32 C24        34.5990  -16.7570   -0.3930 C.3       1   LIG121    0.0000
     33 C25        38.6450  -17.0300    5.0330 C.2       1   LIG121    0.0000
     34 C26        39.2580  -15.7220    4.7480 C.3       1   LIG121    0.0000
     35 O5         39.3250  -17.7580    5.7900 O.2       1   LIG121    0.0000
     36 F1         31.6330  -12.7850   -1.5910 F         1   LIG121    0.0000
     37 F2         28.6640  -18.3960   -1.4510 F         1   LIG121    0.0000
     38 H1         29.2920  -13.7950   -1.1900 H         1   LIG121    0.0000
     39 H2         28.8370  -16.0480   -0.5220 H         1   LIG121    0.0000
     40 H3         33.4050  -14.5940   -1.1800 H         1   LIG121    0.0000
     41 H4         28.5570  -20.6790   -0.3090 H         1   LIG121    0.0000
     42 H5         31.7810  -21.2910    2.5850 H         1   LIG121    0.0000
     43 H6         33.4050  -18.0350    1.9350 H         1   LIG121    0.0000
     44 H7         35.3750  -21.0200    5.1810 H         1   LIG121    0.0000
     45 H8         33.3680  -21.6660    4.0620 H         1   LIG121    0.0000
     46 H9         36.5880  -18.4660    7.3470 H         1   LIG121    0.0000
     47 H10        38.2700  -19.0010    7.5430 H         1   LIG121    0.0000
     48 H11        36.8320  -20.3790    8.9410 H         1   LIG121    0.0000
     49 H12        35.8150  -20.8040    7.5470 H         1   LIG121    0.0000
     50 H13        38.6460  -22.6640    6.0350 H         1   LIG121    0.0000
     51 H14        36.9240  -22.3460    5.7900 H         1   LIG121    0.0000
     52 H15        39.2590  -20.4070    5.5810 H         1   LIG121    0.0000
     53 H16        38.1370  -20.8720    4.2920 H         1   LIG121    0.0000
     54 H17        35.1980  -17.6420   -0.1780 H         1   LIG121    0.0000
     55 H18        34.9330  -16.3270   -1.3380 H         1   LIG121    0.0000
     56 H19        34.7400  -16.0340    0.4130 H         1   LIG121    0.0000
     57 H20        40.1910  -15.6150    5.3030 H         1   LIG121    0.0000
     58 H21        39.4780  -15.6370    3.6830 H         1   LIG121    0.0000
     59 H22        38.5820  -14.9210    5.0500 H         1   LIG121    0.0000
@<TRIPOS>BOND
     1    1    2 2
     2    1    6 1
     3    1   38 1
     4    2    3 1
     5    2   39 1
     6    3    4 2
     7    3    7 1
     8    4    5 1
     9    4   31 1
    10    5    6 2
    11    5   40 1
    12    6   36 1
    13    7    8 2
    14    7   12 1
    15    8    9 1
    16    8   37 1
    17    9   10 2
    18    9   41 1
    19   10   11 1
    20   11   12 2
    21   11   13 1
    22   13   14 1
    23   13   42 1
    24   14   15 2
    25   14   17 1
    26   15   19 1
    27   15   43 1
    28   16   17 2
    29   16   18 1
    30   16   44 1
    31   17   45 1
    32   18   19 2
    33   18   23 1
    34   19   20 1
    35   20   21 1
    36   21   22 1
    37   21   25 2
    38   22   23 2
    39   22   33 1
    40   23   24 1
    41   24   26 1
    42   24   30 1
    43   26   27 1
    44   26   46 1
    45   26   47 1
    46   27   28 1
    47   27   48 1
    48   27   49 1
    49   28   29 1
    50   29   30 1
    51   29   50 1
    52   29   51 1
    53   30   52 1
    54   30   53 1
    55   31   32 1
    56   32   54 1
    57   32   55 1
    58   32   56 1
    59   33   34 1
    60   33   35 2
    61   34   57 1
    62   34   58 1
    63   34   59 1
@<TRIPOS>SUBSTRUCTURE
     1   LIG121    1   GROUP 1   LIG 1
