# Mol2 written by MVD (www.molegro.com)

@<TRIPOS>MOLECULE
153788
   51    53    1     0     0
SMALL
USER_CHARGES


@<TRIPOS>ATOM
      1 N1          1.7330    2.9850    1.1740 N.am      1     LIG1    0.0000
      2 C1          0.8990    2.3630    0.3070 C.ar      1     LIG1    0.0000
      3 C2          0.2570    1.2530    0.8690 C.ar      1     LIG1    0.0000
      4 S1          0.7160    1.0150    2.5260 S.2       1     LIG1    0.0000
      5 C3          1.7470    2.3920    2.3830 C.ar      1     LIG1    0.0000
      6 C4          0.6980    2.8230   -1.0740 C.3       1     LIG1    0.0000
      7 O1          2.4400    2.7880    3.3460 O.2       1     LIG1    0.0000
      8 C5         -0.6570    0.3630    0.2480 C.ar      1     LIG1    0.0000
      9 C6         -1.1890   -0.7000    1.0030 C.ar      1     LIG1    0.0000
     10 C7         -2.0730   -1.5850    0.3790 C.ar      1     LIG1    0.0000
     11 N2         -2.3970   -1.4060   -0.9200 N.pl3     1     LIG1    0.0000
     12 C8         -1.9000   -0.3860   -1.6560 C.ar      1     LIG1    0.0000
     13 N3         -1.0390    0.4810   -1.0560 N.pl3     1     LIG1    0.0000
     14 N4         -2.3260   -0.3600   -2.9460 N.pl3     1     LIG1    0.0000
     15 C9         -2.0600    0.5130   -3.9570 C.ar      1     LIG1    0.0000
     16 C10        -1.0540    2.5100   -4.9600 C.ar      1     LIG1    0.0000
     17 C11        -1.2670    1.6750   -3.8510 C.ar      1     LIG1    0.0000
     18 C12        -2.6410    0.2150   -5.2060 C.ar      1     LIG1    0.0000
     19 C13        -2.4290    1.0440   -6.3210 C.ar      1     LIG1    0.0000
     20 C14        -1.6320    2.1960   -6.2020 C.ar      1     LIG1    0.0000
     21 S2         -1.3700    3.2380   -7.5670 S.O2      1     LIG1    0.0000
     22 C15         2.5140    4.1380    0.8550 C.3       1     LIG1    0.0000
     23 O2          0.1710    3.6290   -7.5420 O.2       1     LIG1    0.0000
     24 O3         -2.1430    2.6790   -8.8400 O.2       1     LIG1    0.0000
     25 N5         -2.1080    4.6870   -7.1380 N.pl3     1     LIG1    0.0000
     26 C16        -3.4160    5.0170   -7.5690 C.3       1     LIG1    0.0000
     27 C17        -4.4580    4.0370   -7.0130 C.3       1     LIG1    0.0000
     28 O4         -4.3730    3.9910   -5.5900 O.2       1     LIG1    0.0000
     29 C18        -5.2900    3.1320   -4.9200 C.2       1     LIG1    0.0000
     30 H1         -0.0175    2.1425   -1.5356 H         1     LIG1    0.0000
     31 H2          0.3114    3.8406   -1.0179 H         1     LIG1    0.0000
     32 H3          1.6694    2.7852   -1.5671 H         1     LIG1    0.0000
     33 H4         -0.9175   -0.8298    2.0506 H         1     LIG1    0.0000
     34 H5         -2.4996   -2.4171    0.9391 H         1     LIG1    0.0000
     35 H6         -3.0458   -2.0701   -1.3660 H         1     LIG1    0.0000
     36 H7         -0.6591    1.2608   -1.6114 H         1     LIG1    0.0000
     37 H8         -2.9576   -1.1319   -3.2031 H         1     LIG1    0.0000
     38 H9         -0.4388    3.4039   -4.8572 H         1     LIG1    0.0000
     39 H10        -0.8125    1.9287   -2.8933 H         1     LIG1    0.0000
     40 H11        -3.2649   -0.6728   -5.3089 H         1     LIG1    0.0000
     41 H12        -2.8833    0.7933   -7.2796 H         1     LIG1    0.0000
     42 H13         3.0762    4.4000    1.7513 H         1     LIG1    0.0000
     43 H14         3.1713    3.8597    0.0312 H         1     LIG1    0.0000
     44 H15         1.8171    4.9258    0.5690 H         1     LIG1    0.0000
     45 H16        -1.5632    5.5052   -7.4458 H         1     LIG1    0.0000
     46 H17        -3.3947    4.9124   -8.6538 H         1     LIG1    0.0000
     47 H18        -3.6245    6.0440   -7.2690 H         1     LIG1    0.0000
     48 H19        -4.3311    3.0298   -7.4098 H         1     LIG1    0.0000
     49 H20        -5.4558    4.4070   -7.2486 H         1     LIG1    0.0000
     50 H21        -5.2712    3.0565   -3.8328 H         1     LIG1    0.0000
     51 H22        -6.0107    2.5500   -5.4944 H         1     LIG1    0.0000
@<TRIPOS>BOND
     1    1    2 ar
     2    1    5 ar
     3    1   22 1
     4    2    3 ar
     5    2    6 1
     6    3    4 ar
     7    3    8 1
     8    4    5 ar
     9    5    7 2
    10    8    9 ar
    11    8   13 ar
    12    9   10 ar
    13   10   11 ar
    14   11   12 ar
    15   12   13 ar
    16   12   14 1
    17   14   15 2
    18   15   17 ar
    19   15   18 ar
    20   16   17 ar
    21   16   20 ar
    22   18   19 ar
    23   19   20 ar
    24   20   21 1
    25   21   23 2
    26   21   24 2
    27   21   25 1
    28   25   26 1
    29   26   27 1
    30   27   28 1
    31   28   29 2
    32    6   30 1
    33    6   31 1
    34    6   32 1
    35    9   33 1
    36   10   34 1
    37   11   35 1
    38   13   36 1
    39   14   37 1
    40   16   38 1
    41   17   39 1
    42   18   40 1
    43   19   41 1
    44   22   42 1
    45   22   43 1
    46   22   44 1
    47   25   45 1
    48   26   46 1
    49   26   47 1
    50   27   48 1
    51   27   49 1
    52   29   50 1
    53   29   51 1
@<TRIPOS>SUBSTRUCTURE
     1     LIG1    1   GROUP 1   LIG 1
@<TRIPOS>MOLECULE
153789
   38    40    1     0     0
SMALL
USER_CHARGES


@<TRIPOS>ATOM
      1 N1          1.4960    3.0440    0.9670 N.am      1     LIG2    0.0000
      2 C1          1.2840    1.9370    0.2170 C.ar      1     LIG2    0.0000
      3 C2          1.9900    0.8250    0.6900 C.ar      1     LIG2    0.0000
      4 S1          2.9260    1.1910    2.1040 S.2       1     LIG2    0.0000
      5 C3          2.3380    2.8110    1.9940 C.ar      1     LIG2    0.0000
      6 C4          0.3940    1.9190   -0.9570 C.3       1     LIG2    0.0000
      7 O1          2.6830    3.6830    2.8220 O.2       1     LIG2    0.0000
      8 C5          2.0040   -0.4770    0.1400 C.ar      1     LIG2    0.0000
      9 C6          2.7650   -1.4960    0.7430 C.ar      1     LIG2    0.0000
     10 C7          2.7570   -2.7680    0.1560 C.ar      1     LIG2    0.0000
     11 N2          2.0320   -2.9920   -0.9640 N.pl3     1     LIG2    0.0000
     12 C8          1.2980   -2.0160   -1.5450 C.ar      1     LIG2    0.0000
     13 N3          1.3000   -0.7810   -0.9810 N.pl3     1     LIG2    0.0000
     14 N4          0.6140   -2.3220   -2.6740 N.pl3     1     LIG2    0.0000
     15 C9         -0.1550   -1.4650   -3.3900 C.ar      1     LIG2    0.0000
     16 C10        -0.7460   -0.5370   -5.5670 C.ar      1     LIG2    0.0000
     17 C11         0.0330   -1.4030   -4.7830 C.ar      1     LIG2    0.0000
     18 C12        -1.1580   -0.6720   -2.7920 C.ar      1     LIG2    0.0000
     19 C13        -1.9380    0.2050   -3.5730 C.ar      1     LIG2    0.0000
     20 C14        -1.7270    0.2700   -4.9650 C.ar      1     LIG2    0.0000
     21 C15         0.8990    4.3150    0.7120 C.3       1     LIG2    0.0000
     22 C16        -2.8440    0.9500   -3.0110 C.1       1     LIG2    0.0000
     23 N5         -3.6410    1.6090   -2.5140 N.2       1     LIG2    1.0000
     24 H1          0.4170    0.9061   -1.3589 H         1     LIG2    0.0000
     25 H2         -0.6010    2.1935   -0.6068 H         1     LIG2    0.0000
     26 H3          0.7885    2.6458   -1.6671 H         1     LIG2    0.0000
     27 H4          3.3461   -1.3003    1.6442 H         1     LIG2    0.0000
     28 H5          3.3351   -3.5774    0.6018 H         1     LIG2    0.0000
     29 H6          2.0393   -3.9317   -1.3858 H         1     LIG2    0.0000
     30 H7          0.7406   -0.0387   -1.4247 H         1     LIG2    0.0000
     31 H8          0.6844   -3.2902   -3.0184 H         1     LIG2    0.0000
     32 H9         -0.5897   -0.4904   -6.6447 H         1     LIG2    0.0000
     33 H10         0.7878   -2.0309   -5.2563 H         1     LIG2    0.0000
     34 H11        -1.3308   -0.7382   -1.7178 H         1     LIG2    0.0000
     35 H12        -2.3251    0.9467   -5.5753 H         1     LIG2    0.0000
     36 H13         1.2609    4.9972    1.4813 H         1     LIG2    0.0000
     37 H14         1.2170    4.6223   -0.2843 H         1     LIG2    0.0000
     38 H15        -0.1808    4.1769    0.7682 H         1     LIG2    0.0000
@<TRIPOS>BOND
     1    1    2 ar
     2    1    5 ar
     3    1   21 1
     4    2    3 ar
     5    2    6 1
     6    3    4 ar
     7    3    8 1
     8    4    5 ar
     9    5    7 2
    10    8    9 ar
    11    8   13 ar
    12    9   10 ar
    13   10   11 ar
    14   11   12 ar
    15   12   13 ar
    16   12   14 1
    17   14   15 1
    18   15   17 ar
    19   15   18 ar
    20   16   17 ar
    21   16   20 ar
    22   18   19 ar
    23   19   20 ar
    24   19   22 1
    25   22   23 2
    26    6   24 1
    27    6   25 1
    28    6   26 1
    29    9   27 1
    30   10   28 1
    31   11   29 1
    32   13   30 1
    33   14   31 1
    34   16   32 1
    35   17   33 1
    36   18   34 1
    37   20   35 1
    38   21   36 1
    39   21   37 1
    40   21   38 1
@<TRIPOS>SUBSTRUCTURE
     1     LIG2    1   GROUP 1   LIG 1
@<TRIPOS>MOLECULE
153783
   44    46    1     0     0
SMALL
USER_CHARGES


@<TRIPOS>ATOM
      1 N1          1.9840    4.2270    0.0360 N.pl3     1     LIG3    0.0000
      2 C1          1.7500    2.9250   -0.1730 C.ar      1     LIG3    0.0000
      3 C2          2.8650    2.1200    0.0900 C.ar      1     LIG3    0.0000
      4 S1          4.2310    3.0560    0.6040 S.2       1     LIG3    0.0000
      5 C3          3.2360    4.4630    0.4420 C.ar      1     LIG3    0.0000
      6 C4          0.4320    2.4700   -0.6310 C.3       1     LIG3    0.0000
      7 N2          3.6670    5.7100    0.6990 N.pl3     1     LIG3    0.0000
      8 C5          2.9340    0.7140   -0.0050 C.ar      1     LIG3    0.0000
      9 C6          4.1070    0.0250    0.3540 C.ar      1     LIG3    0.0000
     10 C7          4.1060   -1.3730    0.2670 C.ar      1     LIG3    0.0000
     11 N3          3.0000   -2.0260   -0.1600 N.pl3     1     LIG3    0.0000
     12 C8          1.8760   -1.3640   -0.5170 C.ar      1     LIG3    0.0000
     13 N4          1.8660   -0.0090   -0.4290 N.pl3     1     LIG3    0.0000
     14 N5          0.8140   -2.0890   -0.9340 N.pl3     1     LIG3    0.0000
     15 C9         -0.3630   -1.5800   -1.3700 C.ar      1     LIG3    0.0000
     16 C10        -2.8010   -1.6000   -1.2760 C.ar      1     LIG3    0.0000
     17 C11        -1.5600   -2.0800   -0.8240 C.ar      1     LIG3    0.0000
     18 C12        -0.4230   -0.6060   -2.3900 C.ar      1     LIG3    0.0000
     19 C13        -1.6640   -0.1240   -2.8480 C.ar      1     LIG3    0.0000
     20 C14        -2.8520   -0.6260   -2.2870 C.ar      1     LIG3    0.0000
     21 S2         -1.7380    1.0750   -4.1020 S.O2      1     LIG3    0.0000
     22 O1         -0.2730    1.4840   -4.5670 O.2       1     LIG3    0.0000
     23 O2         -2.8990    0.6510   -5.1020 O.2       1     LIG3    0.0000
     24 C15        -2.3850    2.5600   -3.3170 C.3       1     LIG3    0.0000
     25 C16         4.9910    5.9780    1.1220 C.2       1     LIG3    0.0000
     26 H1          1.2781    4.9645   -0.1008 H         1     LIG3    0.0000
     27 H2          0.4851    1.3856   -0.7278 H         1     LIG3    0.0000
     28 H3         -0.2909    2.7743    0.1259 H         1     LIG3    0.0000
     29 H4          0.2432    2.9537   -1.5894 H         1     LIG3    0.0000
     30 H5          3.0121    6.4967    0.5843 H         1     LIG3    0.0000
     31 H6          4.9923    0.5644    0.6906 H         1     LIG3    0.0000
     32 H7          4.9974   -1.9360    0.5436 H         1     LIG3    0.0000
     33 H8          3.0148   -3.0545   -0.2145 H         1     LIG3    0.0000
     34 H9          1.0078    0.4939   -0.6965 H         1     LIG3    0.0000
     35 H10         0.9077   -3.1146   -0.9189 H         1     LIG3    0.0000
     36 H11        -3.7244   -1.9836   -0.8420 H         1     LIG3    0.0000
     37 H12        -1.5243   -2.8433   -0.0467 H         1     LIG3    0.0000
     38 H13         0.4996   -0.2237   -2.8269 H         1     LIG3    0.0000
     39 H14        -3.8160   -0.2579   -2.6380 H         1     LIG3    0.0000
     40 H15        -2.4406    3.3292   -4.0873 H         1     LIG3    0.0000
     41 H16        -3.3699    2.3090   -2.9231 H         1     LIG3    0.0000
     42 H17        -1.6882    2.8305   -2.5237 H         1     LIG3    0.0000
     43 H18         5.3027    7.0034    1.3206 H         1     LIG3    0.0000
     44 H19         5.6988    5.1589    1.2492 H         1     LIG3    0.0000
@<TRIPOS>BOND
     1    1    2 ar
     2    1    5 ar
     3    2    3 ar
     4    2    6 1
     5    3    4 ar
     6    3    8 1
     7    4    5 ar
     8    5    7 1
     9    7   25 2
    10    8    9 ar
    11    8   13 ar
    12    9   10 ar
    13   10   11 ar
    14   11   12 ar
    15   12   13 ar
    16   12   14 2
    17   14   15 1
    18   15   17 ar
    19   15   18 ar
    20   16   17 ar
    21   16   20 ar
    22   18   19 ar
    23   19   20 ar
    24   19   21 1
    25   21   22 2
    26   21   23 2
    27   21   24 1
    28    1   26 1
    29    6   27 1
    30    6   28 1
    31    6   29 1
    32    7   30 1
    33    9   31 1
    34   10   32 1
    35   11   33 1
    36   13   34 1
    37   14   35 1
    38   16   36 1
    39   17   37 1
    40   18   38 1
    41   20   39 1
    42   24   40 1
    43   24   41 1
    44   24   42 1
    45   25   43 1
    46   25   44 1
@<TRIPOS>SUBSTRUCTURE
     1     LIG3    1   GROUP 1   LIG 1
@<TRIPOS>MOLECULE
50579853
   38    40    1     0     0
SMALL
USER_CHARGES


@<TRIPOS>ATOM
      1 C1          3.2170    1.4560    0.7210 C.ar      1     LIG4    0.0000
      2 N1          2.9680   -0.6550   -0.1200 N.pl3     1     LIG4    0.0000
      3 C2          4.2950   -0.4940   -0.1610 C.ar      1     LIG4    0.0000
      4 C3          2.3400    0.4230    0.3680 C.ar      1     LIG4    0.0000
      5 N2         -2.7450    1.6330   -0.4320 N.pl3     1     LIG4    0.0000
      6 S1          4.8700    1.0340    0.4110 S.2       1     LIG4    0.0000
      7 N3          1.5810    3.0330    1.5390 N.pl3     1     LIG4    0.0000
      8 C4          1.2110    4.2220    2.0790 C.ar      1     LIG4    0.0000
      9 C5          2.8740    2.7090    1.2730 C.ar      1     LIG4    0.0000
     10 C6         -2.5390    2.2930    0.7480 C.ar      1     LIG4    0.0000
     11 N4         -0.0720    4.5500    2.3650 N.pl3     1     LIG4    0.0000
     12 C7         -1.3970    3.1030    0.9370 C.ar      1     LIG4    0.0000
     13 N5          2.1740    5.1280    2.3660 N.pl3     1     LIG4    0.0000
     14 O1         -3.7770    1.0540   -0.6660 O.2       1     LIG4    0.0000
     15 O2         -1.9040    1.5890   -1.2910 O.2       1     LIG4    0.0000
     16 C8         -1.1590    3.7660    2.1590 C.ar      1     LIG4    0.0000
     17 N6          5.1130   -1.4490   -0.6150 N.pl3     1     LIG4    0.0000
     18 C9          3.8730    3.6540    1.5700 C.ar      1     LIG4    0.0000
     19 C10         3.4820    4.8790    2.1260 C.ar      1     LIG4    0.0000
     20 C11         0.8780    0.4490    0.4780 C.3       1     LIG4    0.0000
     21 C12        -3.4620    2.1830    1.8120 C.ar      1     LIG4    0.0000
     22 C13        -3.2500    2.8600    3.0240 C.ar      1     LIG4    0.0000
     23 C14        -2.1040    3.6510    3.1950 C.ar      1     LIG4    0.0000
     24 H1          2.4840   -1.5103   -0.4285 H         1     LIG4    0.0000
     25 H2          0.8474    2.3438    1.3205 H         1     LIG4    0.0000
     26 H3         -0.2368    5.4798    2.7765 H         1     LIG4    0.0000
     27 H4         -0.6841    3.2181    0.1205 H         1     LIG4    0.0000
     28 H5          1.9039    6.0323    2.7786 H         1     LIG4    0.0000
     29 H6          6.1305   -1.2902   -0.6321 H         1     LIG4    0.0000
     30 H7          4.7257   -2.3435   -0.9477 H         1     LIG4    0.0000
     31 H8          4.9232    3.4388    1.3728 H         1     LIG4    0.0000
     32 H9          4.2324    5.6324    2.3655 H         1     LIG4    0.0000
     33 H10         0.5142   -0.5134    0.1182 H         1     LIG4    0.0000
     34 H11         0.6403    0.6044    1.5304 H         1     LIG4    0.0000
     35 H12         0.5263    1.2730   -0.1429 H         1     LIG4    0.0000
     36 H13        -4.3510    1.5641    1.6905 H         1     LIG4    0.0000
     37 H14        -3.9760    2.7709    3.8321 H         1     LIG4    0.0000
     38 H15        -1.9449    4.1791    4.1352 H         1     LIG4    0.0000
@<TRIPOS>BOND
     1    1    4 ar
     2    1    6 ar
     3    1    9 1
     4    2    3 ar
     5    2    4 ar
     6    3    6 ar
     7    3   17 2
     8    4   20 1
     9    5   10 1
    10    5   14 2
    11    5   15 2
    12    7    8 ar
    13    7    9 ar
    14    8   11 1
    15    8   13 ar
    16    9   18 ar
    17   10   12 ar
    18   10   21 ar
    19   11   16 1
    20   12   16 ar
    21   13   19 ar
    22   16   23 ar
    23   18   19 ar
    24   21   22 ar
    25   22   23 ar
    26    2   24 1
    27    7   25 1
    28   11   26 1
    29   12   27 1
    30   13   28 1
    31   17   29 1
    32   17   30 1
    33   18   31 1
    34   19   32 1
    35   20   33 1
    36   20   34 1
    37   20   35 1
    38   21   36 1
    39   22   37 1
    40   23   38 1
@<TRIPOS>SUBSTRUCTURE
     1     LIG4    1   GROUP 1   LIG 1
@<TRIPOS>MOLECULE
50519896
   38    40    1     0     0
SMALL
USER_CHARGES


@<TRIPOS>ATOM
      1 C1          3.2170    1.4560    0.7210 C.ar      1     LIG5    0.0000
      2 N1          2.9680   -0.6550   -0.1200 N.pl3     1     LIG5    0.0000
      3 C2          4.2950   -0.4940   -0.1610 C.ar      1     LIG5    0.0000
      4 C3          2.3400    0.4230    0.3680 C.ar      1     LIG5    0.0000
      5 N2         -2.7450    1.6330   -0.4320 N.pl3     1     LIG5    0.0000
      6 S1          4.8700    1.0340    0.4110 S.2       1     LIG5    0.0000
      7 N3          1.5810    3.0330    1.5390 N.pl3     1     LIG5    0.0000
      8 C4          1.2110    4.2220    2.0790 C.ar      1     LIG5    0.0000
      9 C5          2.8740    2.7090    1.2730 C.ar      1     LIG5    0.0000
     10 C6         -2.5390    2.2930    0.7480 C.ar      1     LIG5    0.0000
     11 N4         -0.0720    4.5500    2.3650 N.pl3     1     LIG5    0.0000
     12 C7         -1.3970    3.1030    0.9370 C.ar      1     LIG5    0.0000
     13 N5          2.1740    5.1280    2.3660 N.pl3     1     LIG5    0.0000
     14 O1         -3.7770    1.0540   -0.6660 O.2       1     LIG5    0.0000
     15 O2         -1.9040    1.5890   -1.2910 O.2       1     LIG5    0.0000
     16 C8         -1.1590    3.7660    2.1590 C.ar      1     LIG5    0.0000
     17 N6          5.1130   -1.4490   -0.6150 N.pl3     1     LIG5    0.0000
     18 C9          3.8730    3.6540    1.5700 C.ar      1     LIG5    0.0000
     19 C10         3.4820    4.8790    2.1260 C.ar      1     LIG5    0.0000
     20 C11         0.8780    0.4490    0.4780 C.3       1     LIG5    0.0000
     21 C12        -3.4620    2.1830    1.8120 C.ar      1     LIG5    0.0000
     22 C13        -3.2500    2.8600    3.0240 C.ar      1     LIG5    0.0000
     23 C14        -2.1040    3.6510    3.1950 C.ar      1     LIG5    0.0000
     24 H1          2.4840   -1.5103   -0.4285 H         1     LIG5    0.0000
     25 H2          0.8474    2.3438    1.3205 H         1     LIG5    0.0000
     26 H3         -0.2368    5.4798    2.7765 H         1     LIG5    0.0000
     27 H4         -0.6841    3.2181    0.1205 H         1     LIG5    0.0000
     28 H5          1.9039    6.0323    2.7786 H         1     LIG5    0.0000
     29 H6          6.1305   -1.2902   -0.6321 H         1     LIG5    0.0000
     30 H7          4.7257   -2.3435   -0.9477 H         1     LIG5    0.0000
     31 H8          4.9232    3.4388    1.3728 H         1     LIG5    0.0000
     32 H9          4.2324    5.6324    2.3655 H         1     LIG5    0.0000
     33 H10         0.5142   -0.5134    0.1182 H         1     LIG5    0.0000
     34 H11         0.6403    0.6044    1.5304 H         1     LIG5    0.0000
     35 H12         0.5263    1.2730   -0.1429 H         1     LIG5    0.0000
     36 H13        -4.3510    1.5641    1.6905 H         1     LIG5    0.0000
     37 H14        -3.9760    2.7709    3.8321 H         1     LIG5    0.0000
     38 H15        -1.9449    4.1791    4.1352 H         1     LIG5    0.0000
@<TRIPOS>BOND
     1    1    4 ar
     2    1    6 ar
     3    1    9 1
     4    2    3 ar
     5    2    4 ar
     6    3    6 ar
     7    3   17 2
     8    4   20 1
     9    5   10 1
    10    5   14 2
    11    5   15 2
    12    7    8 ar
    13    7    9 ar
    14    8   11 1
    15    8   13 ar
    16    9   18 ar
    17   10   12 ar
    18   10   21 ar
    19   11   16 1
    20   12   16 ar
    21   13   19 ar
    22   16   23 ar
    23   18   19 ar
    24   21   22 ar
    25   22   23 ar
    26    2   24 1
    27    7   25 1
    28   11   26 1
    29   12   27 1
    30   13   28 1
    31   17   29 1
    32   17   30 1
    33   18   31 1
    34   19   32 1
    35   20   33 1
    36   20   34 1
    37   20   35 1
    38   21   36 1
    39   22   37 1
    40   23   38 1
@<TRIPOS>SUBSTRUCTURE
     1     LIG5    1   GROUP 1   LIG 1
@<TRIPOS>MOLECULE
153780
   43    45    1     0     0
SMALL
USER_CHARGES


@<TRIPOS>ATOM
      1 N1          2.2120    3.1860    0.2130 N.pl3     1     LIG6    0.0000
      2 C1          1.5110    2.0840   -0.0870 C.ar      1     LIG6    0.0000
      3 C2          2.1540    0.9030    0.3000 C.ar      1     LIG6    0.0000
      4 S1          3.6860    1.2180    1.0490 S.2       1     LIG6    0.0000
      5 C3          3.3750    2.9040    0.8120 C.ar      1     LIG6    0.0000
      6 C4          0.2140    2.1880   -0.7630 C.3       1     LIG6    0.0000
      7 N2          4.2240    3.8750    1.1910 N.pl3     1     LIG6    0.0000
      8 C5          1.6740   -0.4150    0.1420 C.ar      1     LIG6    0.0000
      9 C6          2.4410   -1.5110    0.5790 C.ar      1     LIG6    0.0000
     10 C7          1.9150   -2.7980    0.4090 C.ar      1     LIG6    0.0000
     11 N3          0.6980   -2.9630   -0.1600 N.pl3     1     LIG6    0.0000
     12 C8         -0.0400   -1.9110   -0.5830 C.ar      1     LIG6    0.0000
     13 N4          0.4630   -0.6600   -0.4230 N.pl3     1     LIG6    0.0000
     14 N5         -1.2550   -2.1640   -1.1250 N.pl3     1     LIG6    0.0000
     15 C9         -2.1280   -1.2300   -1.5770 C.ar      1     LIG6    0.0000
     16 C10        -4.4120   -0.3690   -1.6130 C.ar      1     LIG6    0.0000
     17 C11        -3.4730   -1.3150   -1.1680 C.ar      1     LIG6    0.0000
     18 C12        -1.7430   -0.2060   -2.4670 C.ar      1     LIG6    0.0000
     19 C13        -2.6770    0.7470   -2.9120 C.ar      1     LIG6    0.0000
     20 C14        -4.0130    0.6630   -2.4790 C.ar      1     LIG6    0.0000
     21 S2         -2.1840    2.0290   -3.9740 S.O2      1     LIG6    0.0000
     22 O1         -0.6760    1.8160   -4.4300 O.2       1     LIG6    0.0000
     23 O2         -3.4090    2.3960   -4.9190 O.2       1     LIG6    0.0000
     24 C15         5.4610    3.5900    1.8200 C.2       1     LIG6    0.0000
     25 N6         -2.0940    3.3610   -2.9590 N.pl3     1     LIG6    0.0000
     26 H1          1.8916    4.1427    0.0058 H         1     LIG6    0.0000
     27 H2         -0.1576    1.1722   -0.8976 H         1     LIG6    0.0000
     28 H3         -0.4369    2.7750   -0.1151 H         1     LIG6    0.0000
     29 H4          0.3908    2.6846   -1.7171 H         1     LIG6    0.0000
     30 H5          3.9670    4.8574    1.0186 H         1     LIG6    0.0000
     31 H6          3.4186   -1.3623    1.0376 H         1     LIG6    0.0000
     32 H7          2.4861   -3.6672    0.7351 H         1     LIG6    0.0000
     33 H8          0.3235   -3.9157   -0.2741 H         1     LIG6    0.0000
     34 H9         -0.0997    0.1404   -0.7449 H         1     LIG6    0.0000
     35 H10        -1.5405   -3.1508   -1.2004 H         1     LIG6    0.0000
     36 H11        -5.4498   -0.4358   -1.2864 H         1     LIG6    0.0000
     37 H12        -3.7873   -2.1191   -0.5026 H         1     LIG6    0.0000
     38 H13        -0.7110   -0.1525   -2.8136 H         1     LIG6    0.0000
     39 H14        -4.7409    1.4009   -2.8164 H         1     LIG6    0.0000
     40 H15         6.1236    4.4042    2.1133 H         1     LIG6    0.0000
     41 H16         5.7501    2.5565    2.0107 H         1     LIG6    0.0000
     42 H17        -1.8029    4.1616   -3.5379 H         1     LIG6    0.0000
     43 H18        -3.0331    3.4989   -2.5592 H         1     LIG6    0.0000
@<TRIPOS>BOND
     1    1    2 ar
     2    1    5 ar
     3    2    3 ar
     4    2    6 1
     5    3    4 ar
     6    3    8 1
     7    4    5 ar
     8    5    7 1
     9    7   24 2
    10    8    9 ar
    11    8   13 ar
    12    9   10 ar
    13   10   11 ar
    14   11   12 ar
    15   12   13 ar
    16   12   14 1
    17   14   15 1
    18   15   17 ar
    19   15   18 ar
    20   16   17 ar
    21   16   20 ar
    22   18   19 ar
    23   19   20 ar
    24   19   21 1
    25   21   22 2
    26   21   23 2
    27   21   25 1
    28    1   26 1
    29    6   27 1
    30    6   28 1
    31    6   29 1
    32    7   30 1
    33    9   31 1
    34   10   32 1
    35   11   33 1
    36   13   34 1
    37   14   35 1
    38   16   36 1
    39   17   37 1
    40   18   38 1
    41   20   39 1
    42   24   40 1
    43   24   41 1
    44   25   42 1
    45   25   43 1
@<TRIPOS>SUBSTRUCTURE
     1     LIG6    1   GROUP 1   LIG 1
@<TRIPOS>MOLECULE
50948457
   56    60    1     0     0
SMALL
USER_CHARGES


@<TRIPOS>ATOM
      1 C1         -1.0540    1.5180    0.4680 C.ar      1     LIG7    0.0000
      2 C2          0.2950    1.9580    0.4420 C.ar      1     LIG7    0.0000
      3 C3          0.5790    3.3060    0.7900 C.ar      1     LIG7    0.0000
      4 C4         -0.4440    4.2040    1.1560 C.ar      1     LIG7    0.0000
      5 C5         -2.0650    2.4220    0.8370 C.ar      1     LIG7    0.0000
      6 C6         -1.7630    3.7320    1.1710 C.ar      1     LIG7    0.0000
      7 N1         -2.9140    4.3440    1.4740 N.ar      1     LIG7    0.0000
      8 N2         -3.9090    3.5160    1.3550 N.ar      1     LIG7    0.0000
      9 C7         -3.4460    2.3100    0.9630 C.ar      1     LIG7    0.0000
     10 C8         -4.2500    1.1830    0.7420 C.ar      1     LIG7    0.0000
     11 N3         -5.5870    1.1720    0.8950 N.pl3     1     LIG7    0.0000
     12 N4         -3.8140   -0.0360    0.3530 N.pl3     1     LIG7    0.0000
     13 C9         -4.9040   -0.8130    0.2660 C.ar      1     LIG7    0.0000
     14 C10        -6.0200   -0.0580    0.6060 C.ar      1     LIG7    0.0000
     15 C11        -7.3090   -0.6120    0.6060 C.ar      1     LIG7    0.0000
     16 C12        -7.4470   -1.9690    0.2490 C.ar      1     LIG7    0.0000
     17 C13        -6.3150   -2.7400   -0.0980 C.ar      1     LIG7    0.0000
     18 C14        -5.0280   -2.1640   -0.0920 C.ar      1     LIG7    0.0000
     19 C15         1.3400    1.0730    0.0780 C.2       1     LIG7    0.0000
     20 N5          1.0820   -0.2140   -0.2610 N.am      1     LIG7    0.0000
     21 O1          2.5310    1.4640    0.0710 O.2       1     LIG7    0.0000
     22 C16         2.0740   -1.1670   -0.6360 C.3       1     LIG7    0.0000
     23 C17         2.7280   -0.7910   -1.9890 C.3       1     LIG7    0.0000
     24 N6          3.6600   -1.8280   -2.4890 N.pl3     1     LIG7    1.0000
     25 C18         4.0570   -1.5060   -3.8710 C.3       1     LIG7    0.0000
     26 C19         4.8670   -1.9190   -1.6450 C.3       1     LIG7    0.0000
     27 C20         1.4310   -2.5010   -0.6950 C.ar      1     LIG7    0.0000
     28 C21         1.8700   -3.5440    0.1470 C.ar      1     LIG7    0.0000
     29 C22         1.2580   -4.8080    0.0980 C.ar      1     LIG7    0.0000
     30 C23         0.1990   -5.0420   -0.7950 C.ar      1     LIG7    0.0000
     31 C24        -0.2470   -4.0120   -1.6390 C.ar      1     LIG7    0.0000
     32 C25         0.3670   -2.7490   -1.5890 C.ar      1     LIG7    0.0000
     33 H1         -1.3034    0.4901    0.2047 H         1     LIG7    0.0000
     34 H2          1.6119    3.6538    0.7736 H         1     LIG7    0.0000
     35 H3         -0.2153    5.2365    1.4199 H         1     LIG7    0.0000
     36 H4         -6.1717    1.9694    1.1834 H         1     LIG7    0.0000
     37 H5         -2.8404   -0.3126    0.1618 H         1     LIG7    0.0000
     38 H6         -8.1780   -0.0111    0.8741 H         1     LIG7    0.0000
     39 H7         -8.4359   -2.4274    0.2406 H         1     LIG7    0.0000
     40 H8         -6.4375   -3.7878   -0.3724 H         1     LIG7    0.0000
     41 H9         -4.1510   -2.7537   -0.3589 H         1     LIG7    0.0000
     42 H10         0.1003   -0.5253   -0.2467 H         1     LIG7    0.0000
     43 H11         2.8765   -1.1795    0.1016 H         1     LIG7    0.0000
     44 H12         3.2919    0.1353   -1.8787 H         1     LIG7    0.0000
     45 H13         1.9337   -0.7199   -2.7321 H         1     LIG7    0.0000
     46 H14         4.7392   -2.2908   -4.1977 H         1     LIG7    0.0000
     47 H15         3.1454   -1.4871   -4.4682 H         1     LIG7    0.0000
     48 H16         4.5440   -0.5312   -3.8438 H         1     LIG7    0.0000
     49 H17         5.4981   -2.6972   -2.0742 H         1     LIG7    0.0000
     50 H18         5.3509   -0.9427   -1.6746 H         1     LIG7    0.0000
     51 H19         4.5341   -2.1760   -0.6394 H         1     LIG7    0.0000
     52 H20         2.6912   -3.3680    0.8418 H         1     LIG7    0.0000
     53 H21         1.6050   -5.6071    0.7530 H         1     LIG7    0.0000
     54 H22        -0.2761   -6.0223   -0.8327 H         1     LIG7    0.0000
     55 H23        -1.0687   -4.1921   -2.3322 H         1     LIG7    0.0000
     56 H24         0.0183   -1.9530   -2.2470 H         1     LIG7    0.0000
@<TRIPOS>BOND
     1    1    2 ar
     2    1    5 ar
     3    2    3 ar
     4    2   19 2
     5    3    4 ar
     6    4    6 ar
     7    5    6 ar
     8    5    9 ar
     9    6    7 ar
    10    7    8 ar
    11    8    9 ar
    12    9   10 1
    13   10   11 ar
    14   10   12 ar
    15   11   14 ar
    16   12   13 ar
    17   13   14 ar
    18   13   18 ar
    19   14   15 ar
    20   15   16 ar
    21   16   17 ar
    22   17   18 ar
    23   19   20 am
    24   19   21 2
    25   20   22 1
    26   22   23 1
    27   22   27 1
    28   23   24 1
    29   24   25 1
    30   24   26 1
    31   27   28 ar
    32   27   32 ar
    33   28   29 ar
    34   29   30 ar
    35   30   31 ar
    36   31   32 ar
    37    1   33 1
    38    3   34 1
    39    4   35 1
    40   11   36 1
    41   12   37 1
    42   15   38 1
    43   16   39 1
    44   17   40 1
    45   18   41 1
    46   20   42 1
    47   22   43 1
    48   23   44 1
    49   23   45 1
    50   25   46 1
    51   25   47 1
    52   25   48 1
    53   26   49 1
    54   26   50 1
    55   26   51 1
    56   28   52 1
    57   29   53 1
    58   30   54 1
    59   31   55 1
    60   32   56 1
@<TRIPOS>SUBSTRUCTURE
     1     LIG7    1   GROUP 1   LIG 1
@<TRIPOS>MOLECULE
153784
   48    50    1     0     0
SMALL
USER_CHARGES


@<TRIPOS>ATOM
      1 N1          2.0270    4.1490    1.0760 N.pl3     1     LIG8    0.0000
      2 C1          1.7820    2.8430    0.9080 C.ar      1     LIG8    0.0000
      3 C2          2.8960    2.1300    0.4510 C.ar      1     LIG8    0.0000
      4 S1          4.2760    3.1570    0.2370 S.2       1     LIG8    0.0000
      5 C3          3.2870    4.4750    0.7680 C.ar      1     LIG8    0.0000
      6 C4          0.4570    2.2860    1.2030 C.3       1     LIG8    0.0000
      7 N2          3.7330    5.7390    0.8710 N.pl3     1     LIG8    0.0000
      8 C5          2.9620    0.7480    0.1720 C.ar      1     LIG8    0.0000
      9 C6          4.1610    0.1710   -0.2870 C.ar      1     LIG8    0.0000
     10 C7          4.1720   -1.2020   -0.5610 C.ar      1     LIG8    0.0000
     11 N3          3.0510   -1.9380   -0.3840 N.pl3     1     LIG8    0.0000
     12 C8          1.8990   -1.3860    0.0620 C.ar      1     LIG8    0.0000
     13 N4          1.8780   -0.0550    0.3300 N.pl3     1     LIG8    0.0000
     14 N5          0.8210   -2.1940    0.2000 N.pl3     1     LIG8    0.0000
     15 C9         -0.4060   -1.8120    0.6300 C.ar      1     LIG8    0.0000
     16 C10        -2.8240   -1.8540    0.2980 C.ar      1     LIG8    0.0000
     17 C11        -1.5290   -2.2020   -0.1240 C.ar      1     LIG8    0.0000
     18 C12        -0.5970   -1.0930    1.8280 C.ar      1     LIG8    0.0000
     19 C13        -1.8910   -0.7420    2.2550 C.ar      1     LIG8    0.0000
     20 C14        -3.0030   -1.1240    1.4840 C.ar      1     LIG8    0.0000
     21 S2         -2.1140    0.1340    3.7390 S.O2      1     LIG8    0.0000
     22 O1         -0.7830    0.9300    4.0910 O.2       1     LIG8    0.0000
     23 O2         -3.5680    0.7790    3.7630 O.2       1     LIG8    0.0000
     24 C15        -2.1860   -1.1420    5.0060 C.3       1     LIG8    0.0000
     25 C16         5.0650    6.0950    0.5490 C.3       1     LIG8    0.0000
     26 C17         5.2640    7.5980    0.7740 C.3       1     LIG8    0.0000
     27 H1          1.3241    4.8261    1.4053 H         1     LIG8    0.0000
     28 H2          0.5058    1.2180    0.9908 H         1     LIG8    0.0000
     29 H3          0.2567    2.4811    2.2565 H         1     LIG8    0.0000
     30 H4         -0.2548    2.7960    0.5539 H         1     LIG8    0.0000
     31 H5          3.0852    6.4716    1.1944 H         1     LIG8    0.0000
     32 H6          5.0566    0.7766   -0.4254 H         1     LIG8    0.0000
     33 H7          5.0852   -1.6785   -0.9175 H         1     LIG8    0.0000
     34 H8          3.0750   -2.9460   -0.5944 H         1     LIG8    0.0000
     35 H9          1.0003    0.3647    0.6684 H         1     LIG8    0.0000
     36 H10         0.9447   -3.1871   -0.0435 H         1     LIG8    0.0000
     37 H11        -3.6889   -2.1508   -0.2953 H         1     LIG8    0.0000
     38 H12        -1.3937   -2.7770   -1.0401 H         1     LIG8    0.0000
     39 H13         0.2660   -0.8064    2.4290 H         1     LIG8    0.0000
     40 H14        -4.0076   -0.8525    1.8081 H         1     LIG8    0.0000
     41 H15        -2.3262   -0.6354    5.9609 H         1     LIG8    0.0000
     42 H16        -3.0303   -1.7866    4.7615 H         1     LIG8    0.0000
     43 H17        -1.2398   -1.6819    4.9687 H         1     LIG8    0.0000
     44 H18         5.1942    5.8705   -0.5098 H         1     LIG8    0.0000
     45 H19         5.7514    5.4867    1.1380 H         1     LIG8    0.0000
     46 H20         6.2981    7.8249    0.5147 H         1     LIG8    0.0000
     47 H21         4.5600    8.1139    0.1211 H         1     LIG8    0.0000
     48 H22         5.0581    7.7927    1.8265 H         1     LIG8    0.0000
@<TRIPOS>BOND
     1    1    2 ar
     2    1    5 ar
     3    2    3 ar
     4    2    6 1
     5    3    4 ar
     6    3    8 1
     7    4    5 ar
     8    5    7 1
     9    7   25 1
    10    8    9 ar
    11    8   13 ar
    12    9   10 ar
    13   10   11 ar
    14   11   12 ar
    15   12   13 ar
    16   12   14 1
    17   14   15 1
    18   15   17 ar
    19   15   18 ar
    20   16   17 ar
    21   16   20 ar
    22   18   19 ar
    23   19   20 ar
    24   19   21 1
    25   21   22 2
    26   21   23 2
    27   21   24 1
    28   25   26 1
    29    1   27 1
    30    6   28 1
    31    6   29 1
    32    6   30 1
    33    7   31 1
    34    9   32 1
    35   10   33 1
    36   11   34 1
    37   13   35 1
    38   14   36 1
    39   16   37 1
    40   17   38 1
    41   18   39 1
    42   20   40 1
    43   24   41 1
    44   24   42 1
    45   24   43 1
    46   25   44 1
    47   25   45 1
    48   26   46 1
    49   26   47 1
    50   26   48 1
@<TRIPOS>SUBSTRUCTURE
     1     LIG8    1   GROUP 1   LIG 1
@<TRIPOS>MOLECULE
153782
   42    44    1     0     0
SMALL
USER_CHARGES


@<TRIPOS>ATOM
      1 N1          2.1480    3.1400   -0.0270 N.pl3     1     LIG9    0.0000
      2 C1          1.4010    2.0300   -0.0880 C.ar      1     LIG9    0.0000
      3 C2          2.1230    0.8660    0.2010 C.ar      1     LIG9    0.0000
      4 S1          3.7850    1.2070    0.5560 S.2       1     LIG9    0.0000
      5 C3          3.4190    2.8780    0.2980 C.ar      1     LIG9    0.0000
      6 C4         -0.0230    2.1060   -0.4330 C.3       1     LIG9    0.0000
      7 N2          4.3370    3.8440    0.4120 N.pl3     1     LIG9    0.0000
      8 C5          1.6240   -0.4530    0.2290 C.ar      1     LIG9    0.0000
      9 C6          2.4680   -1.5300    0.5570 C.ar      1     LIG9    0.0000
     10 C7          1.9160   -2.8180    0.5850 C.ar      1     LIG9    0.0000
     11 N3          0.6060   -3.0010    0.3000 N.pl3     1     LIG9    0.0000
     12 C8         -0.2040   -1.9670   -0.0220 C.ar      1     LIG9    0.0000
     13 N4          0.3210   -0.7160   -0.0500 N.pl3     1     LIG9    0.0000
     14 N5         -1.5050   -2.2320   -0.2850 N.pl3     1     LIG9    0.0000
     15 C9         -2.4420   -1.3130   -0.6220 C.ar      1     LIG9    0.0000
     16 C10        -4.6500   -0.3540   -0.2250 C.ar      1     LIG9    0.0000
     17 C11        -3.6460   -1.2790    0.1060 C.ar      1     LIG9    0.0000
     18 C12        -2.2660   -0.4280   -1.7060 C.ar      1     LIG9    0.0000
     19 C13        -3.2700    0.4980   -2.0460 C.ar      1     LIG9    0.0000
     20 C14        -4.4610    0.5340   -1.2970 C.ar      1     LIG9    0.0000
     21 S2         -3.0380    1.5920   -3.3760 S.O2      1     LIG9    0.0000
     22 O1         -1.9530    0.9760   -4.3610 O.2       1     LIG9    0.0000
     23 O2         -4.4540    2.1630   -3.8240 O.2       1     LIG9    0.0000
     24 N6         -2.2210    2.8990   -2.7040 N.2       1     LIG9    0.0000
     25 C15        -2.9010    3.8720   -1.9390 C.2       1     LIG9    0.0000
     26 H1          1.7855    4.0867   -0.2094 H         1     LIG9    0.0000
     27 H2         -0.4093    1.0869   -0.4181 H         1     LIG9    0.0000
     28 H3         -0.5007    2.7315    0.3211 H         1     LIG9    0.0000
     29 H4         -0.0869    2.5491   -1.4268 H         1     LIG9    0.0000
     30 H5          5.3068    3.6057    0.6640 H         1     LIG9    0.0000
     31 H6          4.0741    4.8263    0.2478 H         1     LIG9    0.0000
     32 H7          3.5218   -1.3672    0.7830 H         1     LIG9    0.0000
     33 H8          2.5429   -3.6734    0.8367 H         1     LIG9    0.0000
     34 H9          0.2152   -3.9535    0.3291 H         1     LIG9    0.0000
     35 H10        -0.2974    0.0707   -0.2942 H         1     LIG9    0.0000
     36 H11        -1.8082   -3.2145   -0.2239 H         1     LIG9    0.0000
     37 H12        -5.5756   -0.3252    0.3499 H         1     LIG9    0.0000
     38 H13        -3.8003   -1.9742    0.9312 H         1     LIG9    0.0000
     39 H14        -1.3437   -0.4615   -2.2860 H         1     LIG9    0.0000
     40 H15        -5.2397    1.2536   -1.5497 H         1     LIG9    0.0000
     41 H16        -2.3519    4.7114   -1.5124 H         1     LIG9    0.0000
     42 H17        -3.9750    3.7836   -1.7751 H         1     LIG9    0.0000
@<TRIPOS>BOND
     1    1    2 ar
     2    1    5 ar
     3    2    3 ar
     4    2    6 1
     5    3    4 ar
     6    3    8 1
     7    4    5 ar
     8    5    7 2
     9    8    9 ar
    10    8   13 ar
    11    9   10 ar
    12   10   11 ar
    13   11   12 ar
    14   12   13 ar
    15   12   14 1
    16   14   15 1
    17   15   17 ar
    18   15   18 ar
    19   16   17 ar
    20   16   20 ar
    21   18   19 ar
    22   19   20 ar
    23   19   21 1
    24   21   22 2
    25   21   23 2
    26   21   24 1
    27   24   25 2
    28    1   26 1
    29    6   27 1
    30    6   28 1
    31    6   29 1
    32    7   30 1
    33    7   31 1
    34    9   32 1
    35   10   33 1
    36   11   34 1
    37   13   35 1
    38   14   36 1
    39   16   37 1
    40   17   38 1
    41   18   39 1
    42   20   40 1
    43   25   41 1
    44   25   42 1
@<TRIPOS>SUBSTRUCTURE
     1     LIG9    1   GROUP 1   LIG 1
@<TRIPOS>MOLECULE
153790
   42    44    1     0     0
SMALL
USER_CHARGES


@<TRIPOS>ATOM
      1 N1          2.0390    2.7010    0.7270 N.am      1    LIG10    0.0000
      2 C1          0.9900    2.0180    0.2120 C.ar      1    LIG10    0.0000
      3 C2          1.1700    1.6990   -1.1390 C.ar      1    LIG10    0.0000
      4 S1          2.6880    2.2680   -1.7550 S.2       1    LIG10    0.0000
      5 C3          3.0090    2.9120   -0.1850 C.ar      1    LIG10    0.0000
      6 C4         -0.1980    1.6490    1.0020 C.3       1    LIG10    0.0000
      7 O1          4.0730    3.5220    0.0610 O.2       1    LIG10    0.0000
      8 C5          0.2710    1.0030   -1.9800 C.ar      1    LIG10    0.0000
      9 C6          0.6040    0.7480   -3.3230 C.ar      1    LIG10    0.0000
     10 C7         -0.3250    0.0650   -4.1190 C.ar      1    LIG10    0.0000
     11 N2         -1.5070   -0.3300   -3.5940 N.pl3     1    LIG10    0.0000
     12 C8         -1.8290   -0.0890   -2.3020 C.ar      1    LIG10    0.0000
     13 N3         -0.9340    0.5710   -1.5240 N.pl3     1    LIG10    0.0000
     14 N4         -3.0400   -0.5030   -1.8600 N.pl3     1    LIG10    0.0000
     15 C9         -3.5250   -0.3300   -0.6060 C.ar      1    LIG10    0.0000
     16 C10        -5.3630    0.3880    0.8240 C.ar      1    LIG10    0.0000
     17 C11        -4.8170    0.2030   -0.4560 C.ar      1    LIG10    0.0000
     18 C12        -2.8020   -0.7070    0.5420 C.ar      1    LIG10    0.0000
     19 C13        -3.3410   -0.5280    1.8330 C.ar      1    LIG10    0.0000
     20 C14        -4.6330    0.0350    1.9760 C.ar      1    LIG10    0.0000
     21 C15         2.1200    3.1480    2.0810 C.3       1    LIG10    0.0000
     22 N5         -2.6070   -0.9110    2.9030 N.pl3     1    LIG10    0.0000
     23 O2         -3.0000   -1.7790    3.6370 O.2       1    LIG10    0.0000
     24 C16        -5.2550    0.2800    3.2900 C.3       1    LIG10    0.0000
     25 O3         -1.5280   -0.4250    3.1120 O.2       1    LIG10    0.0000
     26 H1         -0.8707    1.1114    0.3337 H         1    LIG10    0.0000
     27 H2          0.1475    1.0192    1.8218 H         1    LIG10    0.0000
     28 H3         -0.6415    2.5770    1.3630 H         1    LIG10    0.0000
     29 H4          1.5599    1.0733   -3.7335 H         1    LIG10    0.0000
     30 H5         -0.0947   -0.1483   -5.1628 H         1    LIG10    0.0000
     31 H6         -2.1804   -0.8277   -4.1938 H         1    LIG10    0.0000
     32 H7         -1.1800    0.7532   -0.5405 H         1    LIG10    0.0000
     33 H8         -3.6452   -0.9918   -2.5351 H         1    LIG10    0.0000
     34 H9         -6.3629    0.8094    0.9277 H         1    LIG10    0.0000
     35 H10        -5.3977    0.4740   -1.3377 H         1    LIG10    0.0000
     36 H11        -1.8097   -1.1442    0.4311 H         1    LIG10    0.0000
     37 H12         3.0750    3.6619    2.1903 H         1    LIG10    0.0000
     38 H13         1.2773    3.8194    2.2459 H         1    LIG10    0.0000
     39 H14         2.0619    2.2619    2.7131 H         1    LIG10    0.0000
     40 H15        -4.5448   -0.0546    4.0461 H         1    LIG10    0.0000
     41 H16        -5.4447    1.3512    3.3580 H         1    LIG10    0.0000
     42 H17        -6.1789   -0.2977    3.3180 H         1    LIG10    0.0000
@<TRIPOS>BOND
     1    1    2 ar
     2    1    5 ar
     3    1   21 1
     4    2    3 ar
     5    2    6 1
     6    3    4 ar
     7    3    8 1
     8    4    5 ar
     9    5    7 2
    10    8    9 ar
    11    8   13 ar
    12    9   10 ar
    13   10   11 ar
    14   11   12 ar
    15   12   13 ar
    16   12   14 1
    17   14   15 1
    18   15   17 ar
    19   15   18 ar
    20   16   17 ar
    21   16   20 ar
    22   18   19 ar
    23   19   20 ar
    24   19   22 1
    25   20   24 1
    26   22   23 2
    27   22   25 2
    28    6   26 1
    29    6   27 1
    30    6   28 1
    31    9   29 1
    32   10   30 1
    33   11   31 1
    34   13   32 1
    35   14   33 1
    36   16   34 1
    37   17   35 1
    38   18   36 1
    39   21   37 1
    40   21   38 1
    41   21   39 1
    42   24   40 1
    43   24   41 1
    44   24   42 1
@<TRIPOS>SUBSTRUCTURE
     1    LIG10    1   GROUP 1   LIG 1
@<TRIPOS>MOLECULE
50579846
   52    54    1     0     0
SMALL
USER_CHARGES


@<TRIPOS>ATOM
      1 C1          3.6820  -11.3540    0.7050 C.ar      1    LIG11    0.0000
      2 C2          3.8760  -12.7410    0.7410 C.ar      1    LIG11    0.0000
      3 N1          5.1200  -13.2550    0.6070 N.pl3     1    LIG11    0.0000
      4 C3          6.2030  -12.4640    0.4310 C.ar      1    LIG11    0.0000
      5 N2          6.0240  -11.1190    0.3940 N.pl3     1    LIG11    0.0000
      6 C4          4.8070  -10.5300    0.5240 C.ar      1    LIG11    0.0000
      7 N3          7.4140  -13.0600    0.3230 N.pl3     1    LIG11    0.0000
      8 C5          8.5990  -12.4200    0.1650 C.ar      1    LIG11    0.0000
      9 C6          8.8050  -11.4530   -0.8390 C.ar      1    LIG11    0.0000
     10 C7         10.0540  -10.8220   -0.9730 C.ar      1    LIG11    0.0000
     11 C8         11.1200  -11.1610   -0.1160 C.ar      1    LIG11    0.0000
     12 C9         10.9170  -12.1430    0.8740 C.ar      1    LIG11    0.0000
     13 C10         9.6670  -12.7710    1.0100 C.ar      1    LIG11    0.0000
     14 C11         4.6670   -9.1260    0.4930 C.ar      1    LIG11    0.0000
     15 S1          3.1170   -8.3740    0.6870 S.2       1    LIG11    0.0000
     16 C12         3.9180   -6.8470    0.5410 C.ar      1    LIG11    0.0000
     17 N4          5.2410   -6.9180    0.3550 N.pl3     1    LIG11    0.0000
     18 C13         5.6860   -8.1810    0.3230 C.ar      1    LIG11    0.0000
     19 C14         7.1110   -8.4660    0.1210 C.3       1    LIG11    0.0000
     20 N5          3.2790   -5.6660    0.6090 N.pl3     1    LIG11    0.0000
     21 C15         1.8800   -5.5780    0.8120 C.3       1    LIG11    0.0000
     22 C16         1.4570   -4.1060    0.8470 C.3       1    LIG11    0.0000
     23 C17        12.4320  -10.5020   -0.2450 C.3       1    LIG11    0.0000
     24 N6         13.4210  -11.4470   -0.6260 N.am      1    LIG11    0.0000
     25 C18        14.7170  -11.1160   -0.7960 C.2       1    LIG11    0.0000
     26 O1         15.1080   -9.9410   -0.6170 O.2       1    LIG11    0.0000
     27 C19        15.6740  -12.1460   -1.1950 C.3       1    LIG11    0.0000
     28 H1          2.6859  -10.9252    0.8143 H         1    LIG11    0.0000
     29 H2          3.0236  -13.4066    0.8771 H         1    LIG11    0.0000
     30 H3          5.2460  -14.2767    0.6399 H         1    LIG11    0.0000
     31 H4          6.8493  -10.5172    0.2612 H         1    LIG11    0.0000
     32 H5          7.4371  -14.0889    0.3645 H         1    LIG11    0.0000
     33 H6          7.9911  -11.1927   -1.5157 H         1    LIG11    0.0000
     34 H7         10.1988  -10.0658   -1.7446 H         1    LIG11    0.0000
     35 H8         11.7355  -12.4176    1.5393 H         1    LIG11    0.0000
     36 H9          9.5245  -13.5345    1.7748 H         1    LIG11    0.0000
     37 H10         5.8493   -6.0937    0.2483 H         1    LIG11    0.0000
     38 H11         7.6177   -7.5056    0.0256 H         1    LIG11    0.0000
     39 H12         7.4525   -9.0192    0.9959 H         1    LIG11    0.0000
     40 H13         7.1914   -9.0589   -0.7901 H         1    LIG11    0.0000
     41 H14         3.8241   -4.7977    0.5103 H         1    LIG11    0.0000
     42 H15         1.6824   -6.0312    1.7834 H         1    LIG11    0.0000
     43 H16         1.3683   -6.1437    0.0334 H         1    LIG11    0.0000
     44 H17         0.3786   -4.0880    1.0044 H         1    LIG11    0.0000
     45 H18         1.9948   -3.6394    1.6723 H         1    LIG11    0.0000
     46 H19         1.7336   -3.6720   -0.1138 H         1    LIG11    0.0000
     47 H20        12.7249  -10.0414    0.6985 H         1    LIG11    0.0000
     48 H21        12.3760   -9.7488   -1.0309 H         1    LIG11    0.0000
     49 H22        13.1368  -12.4252   -0.7787 H         1    LIG11    0.0000
     50 H23        16.6481  -11.6631   -1.2725 H         1    LIG11    0.0000
     51 H24        15.6615  -12.9107   -0.4183 H         1    LIG11    0.0000
     52 H25        15.3385  -12.5380   -2.1551 H         1    LIG11    0.0000
@<TRIPOS>BOND
     1    1    2 ar
     2    1    6 ar
     3    2    3 ar
     4    3    4 ar
     5    4    5 ar
     6    4    7 1
     7    5    6 ar
     8    6   14 1
     9    7    8 1
    10    8    9 ar
    11    8   13 ar
    12    9   10 ar
    13   10   11 ar
    14   11   12 ar
    15   11   23 1
    16   12   13 ar
    17   14   15 ar
    18   14   18 ar
    19   15   16 ar
    20   16   17 ar
    21   16   20 1
    22   17   18 ar
    23   18   19 1
    24   20   21 1
    25   21   22 1
    26   23   24 1
    27   24   25 am
    28   25   26 2
    29   25   27 1
    30    1   28 1
    31    2   29 1
    32    3   30 1
    33    5   31 1
    34    7   32 1
    35    9   33 1
    36   10   34 1
    37   12   35 1
    38   13   36 1
    39   17   37 1
    40   19   38 1
    41   19   39 1
    42   19   40 1
    43   20   41 1
    44   21   42 1
    45   21   43 1
    46   22   44 1
    47   22   45 1
    48   22   46 1
    49   23   47 1
    50   23   48 1
    51   24   49 1
    52   27   50 1
    53   27   51 1
    54   27   52 1
@<TRIPOS>SUBSTRUCTURE
     1    LIG11    1   GROUP 1   LIG 1
@<TRIPOS>MOLECULE
153781
   44    46    1     0     0
SMALL
USER_CHARGES


@<TRIPOS>ATOM
      1 N1          2.0960    3.2260    0.4640 N.pl3     1    LIG12    0.0000
      2 C1          1.4050    2.1270    0.1360 C.ar      1    LIG12    0.0000
      3 C2          2.1140    0.9430    0.3730 C.ar      1    LIG12    0.0000
      4 S1          3.6910    1.2550    1.0220 S.2       1    LIG12    0.0000
      5 C3          3.3120    2.9420    0.9450 C.ar      1    LIG12    0.0000
      6 C4          0.0490    2.2320   -0.4140 C.3       1    LIG12    0.0000
      7 N2          4.1590    3.9110    1.3320 N.pl3     1    LIG12    0.0000
      8 C5          1.6610   -0.3740    0.1450 C.ar      1    LIG12    0.0000
      9 C6          2.4910   -1.4730    0.4330 C.ar      1    LIG12    0.0000
     10 C7          1.9870   -2.7600    0.2010 C.ar      1    LIG12    0.0000
     11 N3          0.7350   -2.9210   -0.2850 N.pl3     1    LIG12    0.0000
     12 C8         -0.0620   -1.8650   -0.5650 C.ar      1    LIG12    0.0000
     13 N4          0.4180   -0.6140   -0.3450 N.pl3     1    LIG12    0.0000
     14 N5         -1.3080   -2.1110   -1.0320 N.pl3     1    LIG12    0.0000
     15 C9         -2.2310   -1.1700   -1.3470 C.ar      1    LIG12    0.0000
     16 C10        -4.5020   -0.3190   -1.0860 C.ar      1    LIG12    0.0000
     17 C11        -3.5110   -1.2630   -0.7690 C.ar      1    LIG12    0.0000
     18 C12        -1.9620   -0.1360   -2.2680 C.ar      1    LIG12    0.0000
     19 C13        -2.9530    0.8090   -2.5930 C.ar      1    LIG12    0.0000
     20 C14        -4.2220    0.7160   -1.9940 C.ar      1    LIG12    0.0000
     21 S2         -2.6100    2.0830   -3.7240 S.O2      1    LIG12    0.0000
     22 O1         -1.4220    1.6160   -4.6720 O.2       1    LIG12    0.0000
     23 O2         -3.9830    2.7060   -4.2300 O.2       1    LIG12    0.0000
     24 C15         5.4480    3.6260    1.8460 C.2       1    LIG12    0.0000
     25 N6         -1.8840    3.2860   -2.8000 N.2       1    LIG12    0.0000
     26 C16        -2.6490    4.1280   -1.9630 C.2       1    LIG12    0.0000
     27 H1          1.7320    4.1837    0.3579 H         1    LIG12    0.0000
     28 H2         -0.2996    1.2159   -0.5986 H         1    LIG12    0.0000
     29 H3         -0.5599    2.7397    0.3341 H         1    LIG12    0.0000
     30 H4          0.1228    2.8089   -1.3359 H         1    LIG12    0.0000
     31 H5          3.8610    4.8937    1.2522 H         1    LIG12    0.0000
     32 H6          3.4975   -1.3276    0.8254 H         1    LIG12    0.0000
     33 H7          2.6049   -3.6326    0.4125 H         1    LIG12    0.0000
     34 H8          0.3789   -3.8740   -0.4462 H         1    LIG12    0.0000
     35 H9         -0.1890    0.1899   -0.5598 H         1    LIG12    0.0000
     36 H10        -1.5778   -3.0969   -1.1588 H         1    LIG12    0.0000
     37 H11        -5.4883   -0.3895   -0.6274 H         1    LIG12    0.0000
     38 H12        -3.7344   -2.0710   -0.0724 H         1    LIG12    0.0000
     39 H13        -0.9780   -0.0683   -2.7320 H         1    LIG12    0.0000
     40 H14        -4.9913    1.4496   -2.2351 H         1    LIG12    0.0000
     41 H15         6.1061    4.4403    2.1493 H         1    LIG12    0.0000
     42 H16         5.7817    2.5924    1.9382 H         1    LIG12    0.0000
     43 H17        -2.1579    4.9015   -1.3726 H         1    LIG12    0.0000
     44 H18        -3.7305    4.0044   -1.9075 H         1    LIG12    0.0000
@<TRIPOS>BOND
     1    1    2 ar
     2    1    5 ar
     3    2    3 ar
     4    2    6 1
     5    3    4 ar
     6    3    8 1
     7    4    5 ar
     8    5    7 1
     9    7   24 2
    10    8    9 ar
    11    8   13 ar
    12    9   10 ar
    13   10   11 ar
    14   11   12 ar
    15   12   13 ar
    16   12   14 1
    17   14   15 1
    18   15   17 ar
    19   15   18 ar
    20   16   17 ar
    21   16   20 ar
    22   18   19 ar
    23   19   20 ar
    24   19   21 1
    25   21   22 2
    26   21   23 2
    27   21   25 1
    28   25   26 2
    29    1   27 1
    30    6   28 1
    31    6   29 1
    32    6   30 1
    33    7   31 1
    34    9   32 1
    35   10   33 1
    36   11   34 1
    37   13   35 1
    38   14   36 1
    39   16   37 1
    40   17   38 1
    41   18   39 1
    42   20   40 1
    43   24   41 1
    44   24   42 1
    45   26   43 1
    46   26   44 1
@<TRIPOS>SUBSTRUCTURE
     1    LIG12    1   GROUP 1   LIG 1
@<TRIPOS>MOLECULE
51041256
   51    53    1     0     0
SMALL
USER_CHARGES


@<TRIPOS>ATOM
      1 C1         -2.8780    2.3340    0.6240 C.ar      1    LIG13    0.0000
      2 C2         -3.0360    0.9540    0.6160 C.ar      1    LIG13    0.0000
      3 C3         -0.9420    1.3860    0.4640 C.ar      1    LIG13    0.0000
      4 O1         -1.5560    2.5900    0.5270 O.2       1    LIG13    0.0000
      5 N1         -1.8300    0.3800    0.5160 N.am      1    LIG13    0.0000
      6 C4         -3.9520    3.3480    0.7170 C.3       1    LIG13    0.0000
      7 C5         -4.7390    3.1780    2.0330 C.3       1    LIG13    0.0000
      8 C6         -3.3520    4.7700    0.6910 C.3       1    LIG13    0.0000
      9 C7         -4.9230    3.2120   -0.4740 C.3       1    LIG13    0.0000
     10 C8          0.5040    1.2130    0.3470 C.3       1    LIG13    0.0000
     11 S1          1.3140    1.9510    1.7780 S.3       1    LIG13    0.0000
     12 C9          2.9920    1.6830    1.4450 C.ar      1    LIG13    0.0000
     13 C10         5.1760    1.1560    0.6530 C.ar      1    LIG13    0.0000
     14 C11         4.0060    2.0620    2.3110 C.ar      1    LIG13    0.0000
     15 S2          3.5820    0.9210    0.0080 S.2       1    LIG13    0.0000
     16 N2          5.2250    1.7580    1.8510 N.pl3     1    LIG13    0.0000
     17 N3          6.3170    0.7800    0.0400 N.am      1    LIG13    0.0000
     18 C12         6.3960    0.1730   -1.1660 C.2       1    LIG13    0.0000
     19 O2          5.3850   -0.1020   -1.8510 O.2       1    LIG13    0.0000
     20 C13         7.7220   -0.1790   -1.7010 C.3       1    LIG13    0.0000
     21 C14         8.6000    1.0740   -1.8880 C.3       1    LIG13    0.0000
     22 C15         8.4470   -1.1790   -0.7790 C.3       1    LIG13    0.0000
     23 C16         9.8360   -1.5000   -1.3510 C.3       1    LIG13    0.0000
     24 C17         9.9820    0.6660   -2.4170 C.3       1    LIG13    0.0000
     25 N4         10.6300   -0.2690   -1.4840 N.pl3     1    LIG13    0.0000
     26 H1         -3.9866    0.4245    0.6806 H         1    LIG13    0.0000
     27 H2         -1.6251   -0.6289    0.4852 H         1    LIG13    0.0000
     28 H3         -5.5110    3.9474    2.0443 H         1    LIG13    0.0000
     29 H4         -5.1664    2.1753    2.0215 H         1    LIG13    0.0000
     30 H5         -4.0274    3.3059    2.8487 H         1    LIG13    0.0000
     31 H6         -4.1854    5.4689    0.7620 H         1    LIG13    0.0000
     32 H7         -2.6826    4.8492    1.5476 H         1    LIG13    0.0000
     33 H8         -2.8163    4.8727   -0.2527 H         1    LIG13    0.0000
     34 H9         -5.6870    3.9798   -0.3516 H         1    LIG13    0.0000
     35 H10        -4.3379    3.3635   -1.3811 H         1    LIG13    0.0000
     36 H11        -5.3459    2.2084   -0.4274 H         1    LIG13    0.0000
     37 H12         0.7316    1.8247   -0.5260 H         1    LIG13    0.0000
     38 H13         0.7042    0.1662    0.1185 H         1    LIG13    0.0000
     39 H14         3.8288    2.5558    3.2664 H         1    LIG13    0.0000
     40 H15         6.0985    1.9622    2.3572 H         1    LIG13    0.0000
     41 H16         7.2019    0.9710    0.5312 H         1    LIG13    0.0000
     42 H17         7.5606   -0.6454   -2.6729 H         1    LIG13    0.0000
     43 H18         8.7161    1.5826   -0.9310 H         1    LIG13    0.0000
     44 H19         8.1255    1.7427   -2.6062 H         1    LIG13    0.0000
     45 H20         7.8643   -2.0976   -0.7099 H         1    LIG13    0.0000
     46 H21         8.5605   -0.7391    0.2118 H         1    LIG13    0.0000
     47 H22         9.7528   -1.9760   -2.3281 H         1    LIG13    0.0000
     48 H23        10.3638   -2.1530   -0.6560 H         1    LIG13    0.0000
     49 H24        10.6211    1.5396   -2.5451 H         1    LIG13    0.0000
     50 H25         9.8590    0.1450   -3.3665 H         1    LIG13    0.0000
     51 H26        11.5628   -0.5111   -1.8477 H         1    LIG13    0.0000
@<TRIPOS>BOND
     1    1    2 ar
     2    1    4 ar
     3    1    6 1
     4    2    5 ar
     5    3    4 ar
     6    3    5 ar
     7    3   10 1
     8    6    7 1
     9    6    8 1
    10    6    9 1
    11   10   11 1
    12   11   12 1
    13   12   14 ar
    14   12   15 ar
    15   13   15 ar
    16   13   16 ar
    17   13   17 1
    18   14   16 ar
    19   17   18 am
    20   18   19 2
    21   18   20 1
    22   20   21 1
    23   20   22 1
    24   21   24 1
    25   22   23 1
    26   23   25 1
    27   24   25 1
    28    2   26 1
    29    5   27 1
    30    7   28 1
    31    7   29 1
    32    7   30 1
    33    8   31 1
    34    8   32 1
    35    8   33 1
    36    9   34 1
    37    9   35 1
    38    9   36 1
    39   10   37 1
    40   10   38 1
    41   14   39 1
    42   16   40 1
    43   17   41 1
    44   20   42 1
    45   21   43 1
    46   21   44 1
    47   22   45 1
    48   22   46 1
    49   23   47 1
    50   23   48 1
    51   24   49 1
    52   24   50 1
    53   25   51 1
@<TRIPOS>SUBSTRUCTURE
     1    LIG13    1   GROUP 1   LIG 1
@<TRIPOS>MOLECULE
51267902
   46    49    1     0     0
SMALL
USER_CHARGES


@<TRIPOS>ATOM
      1 C1          0.4340    2.5550    0.5140 C.ar      1    LIG14    0.0000
      2 C2          1.5840    1.8910    0.7570 C.ar      1    LIG14    0.0000
      3 C3          2.5380    2.4450    1.5200 C.ar      1    LIG14    0.0000
      4 C4          0.2100    3.8280    1.0290 C.ar      1    LIG14    0.0000
      5 C5          1.2340    4.3940    1.8270 C.ar      1    LIG14    0.0000
      6 C6          1.0980    5.6810    2.3990 C.ar      1    LIG14    0.0000
      7 C7         -1.1160    5.8460    1.3620 C.ar      1    LIG14    0.0000
      8 C8         -0.9690    4.5690    0.8000 C.ar      1    LIG14    0.0000
      9 C9         -0.0960    6.3970    2.1520 C.ar      1    LIG14    0.0000
     10 O1         -0.2820    7.6350    2.6670 O.2       1    LIG14    0.0000
     11 O2         -1.9780    4.0790    0.0440 O.2       1    LIG14    0.0000
     12 O3         -0.3980    1.9840   -0.1760 O.2       1    LIG14    0.0000
     13 O4          2.3690    3.6630    2.0480 O.2       1    LIG14    0.0000
     14 C10         3.7260    1.7990    1.7800 C.ar      1    LIG14    0.0000
     15 C11         6.1190    1.6170    1.3200 C.ar      1    LIG14    0.0000
     16 C12         4.8770    2.2310    1.0890 C.ar      1    LIG14    0.0000
     17 C13         3.8320    0.7470    2.7230 C.ar      1    LIG14    0.0000
     18 C14         5.0830    0.1370    2.9470 C.ar      1    LIG14    0.0000
     19 C15         6.2210    0.5690    2.2470 C.ar      1    LIG14    0.0000
     20 Cl1         2.5020    0.1930    3.6200 Cl        1    LIG14    0.0000
     21 C16         2.1660    6.2940    3.2420 C.3       1    LIG14    0.0000
     22 C17         4.3970    7.4380    3.3810 C.3       1    LIG14    0.0000
     23 C18         3.4170    6.7170    2.4390 C.3       1    LIG14    0.0000
     24 C19         2.5870    5.4220    4.4430 C.3       1    LIG14    0.0000
     25 C20         3.5960    6.1930    5.3080 C.3       1    LIG14    0.0000
     26 N1          4.7810    6.5610    4.5070 N.pl3     1    LIG14    0.0000
     27 C21         5.7650    7.2490    5.3620 C.3       1    LIG14    0.0000
     28 O5          4.0940    5.6130    1.8500 O.3       1    LIG14    0.0000
     29 H1          1.7381    0.8996    0.3310 H         1    LIG14    0.0000
     30 H2         -2.0290    6.4140    1.1836 H         1    LIG14    0.0000
     31 H3          7.0031    1.9546    0.7793 H         1    LIG14    0.0000
     32 H4          4.8022    3.0472    0.3705 H         1    LIG14    0.0000
     33 H5          5.1675   -0.6756    3.6686 H         1    LIG14    0.0000
     34 H6          7.1840    0.0899    2.4239 H         1    LIG14    0.0000
     35 H7          1.6954    7.1954    3.6347 H         1    LIG14    0.0000
     36 H8          3.9448    8.3455    3.7810 H         1    LIG14    0.0000
     37 H9          5.3073    7.6717    2.8289 H         1    LIG14    0.0000
     38 H10         3.0769    7.3686    1.6341 H         1    LIG14    0.0000
     39 H11         3.0460    4.5010    4.0836 H         1    LIG14    0.0000
     40 H12         1.7089    5.1811    5.0423 H         1    LIG14    0.0000
     41 H13         3.9151    5.5898    6.1580 H         1    LIG14    0.0000
     42 H14         3.1341    7.1179    5.6533 H         1    LIG14    0.0000
     43 H15         6.0153    6.5655    6.1733 H         1    LIG14    0.0000
     44 H16         6.6303    7.4706    4.7373 H         1    LIG14    0.0000
     45 H17         5.2876    8.1572    5.7300 H         1    LIG14    0.0000
     46 H18         3.4215    5.1460    1.2251 H         1    LIG14    0.0000
@<TRIPOS>BOND
     1    1    2 ar
     2    1    4 ar
     3    1   12 2
     4    2    3 ar
     5    3   13 ar
     6    3   14 1
     7    4    5 ar
     8    4    8 ar
     9    5    6 ar
    10    5   13 ar
    11    6    9 ar
    12    6   21 1
    13    7    8 ar
    14    7    9 ar
    15    8   11 2
    16    9   10 2
    17   14   16 ar
    18   14   17 ar
    19   15   16 ar
    20   15   19 ar
    21   17   18 ar
    22   17   20 2
    23   18   19 ar
    24   21   23 1
    25   21   24 1
    26   22   23 1
    27   22   26 1
    28   23   28 1
    29   24   25 1
    30   25   26 1
    31   26   27 1
    32    2   29 1
    33    7   30 1
    34   15   31 1
    35   16   32 1
    36   18   33 1
    37   19   34 1
    38   21   35 1
    39   22   36 1
    40   22   37 1
    41   23   38 1
    42   24   39 1
    43   24   40 1
    44   25   41 1
    45   25   42 1
    46   27   43 1
    47   27   44 1
    48   27   45 1
    49   28   46 1
@<TRIPOS>SUBSTRUCTURE
     1    LIG14    1   GROUP 1   LIG 1
@<TRIPOS>MOLECULE
153785
   47    49    1     0     0
SMALL
USER_CHARGES


@<TRIPOS>ATOM
      1 N1          2.2450    3.9580   -0.2240 N.pl3     1    LIG15    0.0000
      2 C1          1.9200    2.6620   -0.1270 C.ar      1    LIG15    0.0000
      3 C2          2.9560    1.8720    0.3830 C.ar      1    LIG15    0.0000
      4 S1          4.3700    2.8120    0.7360 S.2       1    LIG15    0.0000
      5 C3          3.4940    4.1990    0.1890 C.ar      1    LIG15    0.0000
      6 C4          0.5940    2.1960   -0.5450 C.3       1    LIG15    0.0000
      7 N2          4.0240    5.4280    0.1730 N.pl3     1    LIG15    0.0000
      8 C5          2.9300    0.4800    0.6160 C.ar      1    LIG15    0.0000
      9 C6          4.0660   -0.1710    1.1320 C.ar      1    LIG15    0.0000
     10 C7          3.9950   -1.5510    1.3570 C.ar      1    LIG15    0.0000
     11 N3          2.8540   -2.2230    1.0800 N.pl3     1    LIG15    0.0000
     12 C8          1.7620   -1.6020    0.5800 C.ar      1    LIG15    0.0000
     13 N4          1.8200   -0.2630    0.3590 N.pl3     1    LIG15    0.0000
     14 N5          0.6650   -2.3610    0.3480 N.pl3     1    LIG15    0.0000
     15 C9         -0.5260   -1.9330   -0.1390 C.ar      1    LIG15    0.0000
     16 C10        -2.9620   -2.0350   -0.0190 C.ar      1    LIG15    0.0000
     17 C11        -1.7000   -2.4220    0.4630 C.ar      1    LIG15    0.0000
     18 C12        -0.6320   -1.0720   -1.2510 C.ar      1    LIG15    0.0000
     19 C13        -1.8920   -0.6760   -1.7360 C.ar      1    LIG15    0.0000
     20 C14        -3.0570   -1.1610   -1.1140 C.ar      1    LIG15    0.0000
     21 S2         -2.0110    0.4190   -3.0810 S.O2      1    LIG15    0.0000
     22 O1         -0.6130    0.4820   -3.8350 O.2       1    LIG15    0.0000
     23 O2         -3.4190    0.2050   -3.7890 O.2       1    LIG15    0.0000
     24 N6         -2.1000    1.9350   -2.3590 N.pl3     1    LIG15    0.0000
     25 C15        -3.2650    2.3670   -1.6840 C.3       1    LIG15    0.0000
     26 C16        -2.9450    2.6170   -0.2070 C.3       1    LIG15    0.0000
     27 H1          1.6063    4.6853   -0.5762 H         1    LIG15    0.0000
     28 H2          0.5658    1.1199   -0.3739 H         1    LIG15    0.0000
     29 H3         -0.1369    2.7231    0.0682 H         1    LIG15    0.0000
     30 H4          0.4885    2.4412   -1.6018 H         1    LIG15    0.0000
     31 H5          4.9898    5.5766    0.4987 H         1    LIG15    0.0000
     32 H6          3.4661    6.2251   -0.1651 H         1    LIG15    0.0000
     33 H7          4.9777    0.3849    1.3508 H         1    LIG15    0.0000
     34 H8          4.8586   -2.0837    1.7552 H         1    LIG15    0.0000
     35 H9          2.8161   -3.2373    1.2551 H         1    LIG15    0.0000
     36 H10         0.9872    0.2103   -0.0197 H         1    LIG15    0.0000
     37 H11         0.7431   -3.3652    0.5632 H         1    LIG15    0.0000
     38 H12        -3.8668   -2.4131    0.4569 H         1    LIG15    0.0000
     39 H13        -1.6301   -3.1057    1.3090 H         1    LIG15    0.0000
     40 H14         0.2721   -0.7094   -1.7401 H         1    LIG15    0.0000
     41 H15        -4.0366   -0.8573   -1.4833 H         1    LIG15    0.0000
     42 H16        -1.9388    2.6978   -3.0321 H         1    LIG15    0.0000
     43 H17        -3.9816    1.5492   -1.7609 H         1    LIG15    0.0000
     44 H18        -3.6602    3.2514   -2.1837 H         1    LIG15    0.0000
     45 H19        -3.8691    2.9463    0.2680 H         1    LIG15    0.0000
     46 H20        -2.5909    1.6727    0.2066 H         1    LIG15    0.0000
     47 H21        -2.1752    3.3880   -0.1738 H         1    LIG15    0.0000
@<TRIPOS>BOND
     1    1    2 ar
     2    1    5 ar
     3    2    3 ar
     4    2    6 1
     5    3    4 ar
     6    3    8 1
     7    4    5 ar
     8    5    7 1
     9    8    9 ar
    10    8   13 ar
    11    9   10 ar
    12   10   11 ar
    13   11   12 ar
    14   12   13 ar
    15   12   14 1
    16   14   15 1
    17   15   17 ar
    18   15   18 ar
    19   16   17 ar
    20   16   20 ar
    21   18   19 ar
    22   19   20 ar
    23   19   21 1
    24   21   22 2
    25   21   23 2
    26   21   24 1
    27   24   25 1
    28   25   26 1
    29    1   27 1
    30    6   28 1
    31    6   29 1
    32    6   30 1
    33    7   31 1
    34    7   32 1
    35    9   33 1
    36   10   34 1
    37   11   35 1
    38   13   36 1
    39   14   37 1
    40   16   38 1
    41   17   39 1
    42   18   40 1
    43   20   41 1
    44   24   42 1
    45   25   43 1
    46   25   44 1
    47   26   45 1
    48   26   46 1
    49   26   47 1
@<TRIPOS>SUBSTRUCTURE
     1    LIG15    1   GROUP 1   LIG 1
@<TRIPOS>MOLECULE
50910157
   35    37    1     0     0
SMALL
USER_CHARGES


@<TRIPOS>ATOM
      1 N1         11.8300   -4.6320   -0.5880 N.ar      1    LIG16    0.0000
      2 N2         12.7280   -5.4940   -0.9480 N.am      1    LIG16    0.0000
      3 C1         13.0840   -5.2730   -2.2190 C.ar      1    LIG16    0.0000
      4 C2         12.3440   -4.1860   -2.6800 C.ar      1    LIG16    0.0000
      5 C3         11.5510   -3.7910   -1.6030 C.ar      1    LIG16    0.0000
      6 N3         12.3550   -3.6320   -3.8750 N.2       1    LIG16    0.0000
      7 N4         13.0580   -4.0020   -4.8080 N.2       1    LIG16    0.0000
      8 C4         13.0720   -3.4500   -6.0060 C.ar      1    LIG16    0.0000
      9 O1         13.9250   -5.9420   -2.8580 O.2       1    LIG16    0.0000
     10 C5         10.6060   -2.7420   -1.5420 C.ar      1    LIG16    0.0000
     11 C6         10.7880   -1.5350   -2.2520 C.ar      1    LIG16    0.0000
     12 C7          9.8320   -0.5080   -2.1750 C.ar      1    LIG16    0.0000
     13 C8          8.6790   -0.6600   -1.3860 C.ar      1    LIG16    0.0000
     14 C9          8.4970   -1.8590   -0.6680 C.ar      1    LIG16    0.0000
     15 C10         9.4510   -2.8880   -0.7430 C.ar      1    LIG16    0.0000
     16 C11        12.2720   -2.3440   -6.3660 C.ar      1    LIG16    0.0000
     17 N5         12.3430   -1.8330   -7.6210 N.pl3     1    LIG16    0.0000
     18 C12        13.1630   -2.3410   -8.5740 C.ar      1    LIG16    0.0000
     19 C13        13.9810   -3.4400   -8.2730 C.ar      1    LIG16    0.0000
     20 C14        13.9290   -3.9900   -6.9820 C.ar      1    LIG16    0.0000
     21 O2          7.7960    0.3820   -1.3630 O.2       1    LIG16    0.0000
     22 C15         6.5850    0.3470   -0.6040 C.3       1    LIG16    0.0000
     23 H1         13.1103   -6.2375   -0.3464 H         1    LIG16    0.0000
     24 H2         11.6785   -1.3987   -2.8656 H         1    LIG16    0.0000
     25 H3          9.9862    0.4157   -2.7328 H         1    LIG16    0.0000
     26 H4          7.6090   -1.9892   -0.0495 H         1    LIG16    0.0000
     27 H5          9.2979   -3.8080   -0.1788 H         1    LIG16    0.0000
     28 H6         11.5964   -1.9000   -5.6349 H         1    LIG16    0.0000
     29 H7         11.7494   -1.0258   -7.8596 H         1    LIG16    0.0000
     30 H8         13.1864   -1.8974   -9.5694 H         1    LIG16    0.0000
     31 H9         14.6455   -3.8598   -9.0281 H         1    LIG16    0.0000
     32 H10        14.5591   -4.8440   -6.7337 H         1    LIG16    0.0000
     33 H11         6.0791    1.2986   -0.7670 H         1    LIG16    0.0000
     34 H12         5.9989   -0.4927   -0.9775 H         1    LIG16    0.0000
     35 H13         6.8671    0.2117    0.4401 H         1    LIG16    0.0000
@<TRIPOS>BOND
     1    1    2 ar
     2    1    5 ar
     3    2    3 ar
     4    3    4 ar
     5    3    9 2
     6    4    5 ar
     7    4    6 2
     8    5   10 1
     9    6    7 2
    10    7    8 1
    11    8   16 ar
    12    8   20 ar
    13   10   11 ar
    14   10   15 ar
    15   11   12 ar
    16   12   13 ar
    17   13   14 ar
    18   13   21 2
    19   14   15 ar
    20   16   17 ar
    21   17   18 ar
    22   18   19 ar
    23   19   20 ar
    24   21   22 1
    25    2   23 1
    26   11   24 1
    27   12   25 1
    28   14   26 1
    29   15   27 1
    30   16   28 1
    31   17   29 1
    32   18   30 1
    33   19   31 1
    34   20   32 1
    35   22   33 1
    36   22   34 1
    37   22   35 1
@<TRIPOS>SUBSTRUCTURE
     1    LIG16    1   GROUP 1   LIG 1
@<TRIPOS>MOLECULE
50910188
   35    37    1     0     0
SMALL
USER_CHARGES


@<TRIPOS>ATOM
      1 N1          4.8790  -26.3990   -0.2990 N.ar      1    LIG17    0.0000
      2 N2          5.7360  -27.2760   -0.7180 N.am      1    LIG17    0.0000
      3 C1          6.1000  -26.9890   -1.9730 C.ar      1    LIG17    0.0000
      4 C2          5.4100  -25.8410   -2.3580 C.ar      1    LIG17    0.0000
      5 C3          4.6360  -25.4810   -1.2550 C.ar      1    LIG17    0.0000
      6 N3          5.4420  -25.2100   -3.5150 N.2       1    LIG17    0.0000
      7 N4          6.1250  -25.5480   -4.4740 N.2       1    LIG17    0.0000
      8 C4          6.1610  -24.9250   -5.6370 C.ar      1    LIG17    0.0000
      9 O1          6.9070  -27.6530   -2.6590 O.2       1    LIG17    0.0000
     10 C5          3.7460  -24.3890   -1.1210 C.ar      1    LIG17    0.0000
     11 C6          4.0450  -23.1390   -1.7030 C.ar      1    LIG17    0.0000
     12 N5          3.1960  -22.0930   -1.5610 N.pl3     1    LIG17    0.0000
     13 C7          2.0370  -22.1810   -0.8670 C.ar      1    LIG17    0.0000
     14 C8          1.6820  -23.3960   -0.2670 C.ar      1    LIG17    0.0000
     15 C9          2.5390  -24.5110   -0.3910 C.ar      1    LIG17    0.0000
     16 C10         5.3990  -23.7680   -5.9170 C.ar      1    LIG17    0.0000
     17 C11         5.4790  -23.1500   -7.1760 C.ar      1    LIG17    0.0000
     18 C12         6.3190  -23.6830   -8.1680 C.ar      1    LIG17    0.0000
     19 C13         7.0830  -24.8310   -7.8970 C.ar      1    LIG17    0.0000
     20 C14         7.0030  -25.4480   -6.6370 C.ar      1    LIG17    0.0000
     21 O2          2.2340  -25.7230    0.1710 O.2       1    LIG17    0.0000
     22 C15         0.9810  -26.0010    0.8040 C.3       1    LIG17    0.0000
     23 H1          6.0845  -28.0739   -0.1677 H         1    LIG17    0.0000
     24 H2          4.9666  -23.0139   -2.2715 H         1    LIG17    0.0000
     25 H3          3.4424  -21.1939   -1.9990 H         1    LIG17    0.0000
     26 H4          1.3846  -21.3126   -0.7757 H         1    LIG17    0.0000
     27 H5          0.7501  -23.4800    0.2920 H         1    LIG17    0.0000
     28 H6          4.7447  -23.3523   -5.1507 H         1    LIG17    0.0000
     29 H7          4.8894  -22.2570   -7.3832 H         1    LIG17    0.0000
     30 H8          6.3781  -23.2067   -9.1467 H         1    LIG17    0.0000
     31 H9          7.7380  -25.2431   -8.6646 H         1    LIG17    0.0000
     32 H10         7.5974  -26.3384   -6.4322 H         1    LIG17    0.0000
     33 H11         1.0227  -27.0325    1.1539 H         1    LIG17    0.0000
     34 H12         0.8779  -25.2968    1.6296 H         1    LIG17    0.0000
     35 H13         0.2054  -25.8594    0.0514 H         1    LIG17    0.0000
@<TRIPOS>BOND
     1    1    2 ar
     2    1    5 ar
     3    2    3 ar
     4    3    4 ar
     5    3    9 2
     6    4    5 ar
     7    4    6 2
     8    5   10 1
     9    6    7 2
    10    7    8 1
    11    8   16 ar
    12    8   20 ar
    13   10   11 ar
    14   10   15 ar
    15   11   12 ar
    16   12   13 ar
    17   13   14 ar
    18   14   15 ar
    19   15   21 2
    20   16   17 ar
    21   17   18 ar
    22   18   19 ar
    23   19   20 ar
    24   21   22 1
    25    2   23 1
    26   11   24 1
    27   12   25 1
    28   13   26 1
    29   14   27 1
    30   16   28 1
    31   17   29 1
    32   18   30 1
    33   19   31 1
    34   20   32 1
    35   22   33 1
    36   22   34 1
    37   22   35 1
@<TRIPOS>SUBSTRUCTURE
     1    LIG17    1   GROUP 1   LIG 1
@<TRIPOS>MOLECULE
184848
   33    36    1     0     0
SMALL
USER_CHARGES


@<TRIPOS>ATOM
      1 C1          1.1810    2.8830   -0.2130 C.2       1    LIG18    0.0000
      2 C2          1.3070    1.7610    0.7180 C.3       1    LIG18    0.0000
      3 O1          2.1240    3.1050   -1.0020 O.2       1    LIG18    0.0000
      4 N1          0.2030    3.8110   -0.1490 N.am      1    LIG18    0.0000
      5 C3         -1.6860    2.6450    1.0210 C.2       1    LIG18    0.0000
      6 C4         -1.0000    3.7810    0.4950 C.2       1    LIG18    0.0000
      7 C5         -1.6340    5.0420    0.5220 C.ar      1    LIG18    0.0000
      8 C6         -2.9120    5.2040    1.0730 C.ar      1    LIG18    0.0000
      9 C7         -3.5900    4.0950    1.5890 C.ar      1    LIG18    0.0000
     10 C8         -2.9870    2.8290    1.5510 C.ar      1    LIG18    0.0000
     11 C9          0.1250    0.8970    0.7470 C.2       1    LIG18    0.0000
     12 C10        -1.1910    1.3160    0.9710 C.2       1    LIG18    0.0000
     13 N2         -1.9480    0.2080    1.1260 N.pl3     1    LIG18    0.0000
     14 C11         0.1120   -0.4950    0.7290 C.ar      1    LIG18    0.0000
     15 C12        -1.1970   -0.8900    0.9700 C.ar      1    LIG18    0.0000
     16 C13         0.8140   -2.8260    0.6090 C.ar      1    LIG18    0.0000
     17 C14         1.1330   -1.4450    0.5560 C.ar      1    LIG18    0.0000
     18 C15        -1.5480   -2.2450    1.0300 C.ar      1    LIG18    0.0000
     19 C16        -0.5340   -3.2050    0.8450 C.ar      1    LIG18    0.0000
     20 N3          1.7870   -3.7720    0.4370 N.pl3     1    LIG18    0.0000
     21 O2          1.5430   -4.9500    0.4760 O.2       1    LIG18    0.0000
     22 O3          2.9380   -3.4740    0.2390 O.2       1    LIG18    0.0000
     23 H1          1.4364    2.1759    1.7176 H         1    LIG18    0.0000
     24 H2          2.1513    1.1543    0.3905 H         1    LIG18    0.0000
     25 H3          0.3949    4.6794   -0.6685 H         1    LIG18    0.0000
     26 H4         -1.1187    5.9075    0.1056 H         1    LIG18    0.0000
     27 H5         -3.3758    6.1901    1.0994 H         1    LIG18    0.0000
     28 H6         -4.5843    4.2140    2.0195 H         1    LIG18    0.0000
     29 H7         -3.5315    1.9676    1.9378 H         1    LIG18    0.0000
     30 H8         -2.9568    0.2076    1.3340 H         1    LIG18    0.0000
     31 H9          2.1601   -1.1237    0.3828 H         1    LIG18    0.0000
     32 H10        -2.5785   -2.5483    1.2149 H         1    LIG18    0.0000
     33 H11        -0.7901   -4.2638    0.8839 H         1    LIG18    0.0000
@<TRIPOS>BOND
     1    1    2 1
     2    1    3 2
     3    1    4 ar
     4    2   11 1
     5    4    6 1
     6    5    6 ar
     7    5   10 ar
     8    5   12 1
     9    6    7 ar
    10    7    8 ar
    11    8    9 ar
    12    9   10 ar
    13   11   12 ar
    14   11   14 ar
    15   12   13 ar
    16   13   15 ar
    17   14   15 ar
    18   14   17 ar
    19   15   18 ar
    20   16   17 ar
    21   16   19 ar
    22   16   20 1
    23   18   19 ar
    24   20   21 2
    25   20   22 2
    26    2   23 1
    27    2   24 1
    28    4   25 1
    29    7   26 1
    30    8   27 1
    31    9   28 1
    32   10   29 1
    33   13   30 1
    34   17   31 1
    35   18   32 1
    36   19   33 1
@<TRIPOS>SUBSTRUCTURE
     1    LIG18    1   GROUP 1   LIG 1
@<TRIPOS>MOLECULE
50839928
   42    45    1     0     0
SMALL
USER_CHARGES


@<TRIPOS>ATOM
      1 C1         26.0010  -11.9650    0.6650 C.1       1    LIG19    0.0000
      2 C2         27.0720  -11.2250    0.7100 C.ar      1    LIG19    0.0000
      3 C3         26.9610   -9.8290    0.6980 C.ar      1    LIG19    0.0000
      4 C4         28.1040   -9.0080    0.7570 C.ar      1    LIG19    0.0000
      5 C5         29.4200   -9.5750    0.8300 C.ar      1    LIG19    0.0000
      6 C6         29.5120  -11.0020    0.8230 C.ar      1    LIG19    0.0000
      7 C7         28.3490  -11.8020    0.7700 C.ar      1    LIG19    0.0000
      8 N1         25.0610  -12.6260    0.6270 N.2       1    LIG19    1.0000
      9 C8         34.0550   -7.8450    1.3470 C.ar      1    LIG19    0.0000
     10 C9         32.6710   -8.0380    1.1470 C.ar      1    LIG19    0.0000
     11 C10        31.8720   -6.9800    0.7390 C.ar      1    LIG19    0.0000
     12 C11        32.3820   -5.6980    0.5220 C.ar      1    LIG19    0.0000
     13 C12        33.7590   -5.5230    0.7330 C.ar      1    LIG19    0.0000
     14 N2         34.5200   -6.5810    1.1240 N.pl3     1    LIG19    0.0000
     15 C13        30.5960   -8.7470    0.8950 C.ar      1    LIG19    0.0000
     16 N3         31.8620   -9.1030    1.2320 N.pl3     1    LIG19    0.0000
     17 N4         30.6190   -7.4270    0.6010 N.pl3     1    LIG19    0.0000
     18 N5         34.8830   -8.8460    1.7690 N.pl3     1    LIG19    0.0000
     19 C14        38.2550   -7.6990    1.1070 C.ar      1    LIG19    0.0000
     20 N6         36.9090   -7.7860    1.1420 N.pl3     1    LIG19    0.0000
     21 C15        36.2490   -8.7850    1.7840 C.ar      1    LIG19    0.0000
     22 C16        37.0110   -9.7740    2.4370 C.ar      1    LIG19    0.0000
     23 C17        38.4140   -9.6470    2.4320 C.ar      1    LIG19    0.0000
     24 N7         38.9910   -8.6250    1.7600 N.pl3     1    LIG19    0.0000
     25 C18        39.2890  -10.5750    3.1600 C.3       1    LIG19    0.0000
     26 Cl1        30.9560  -11.9010    0.7870 Cl        1    LIG19    0.0000
     27 Cl2        27.7400   -7.3450    0.7950 Cl        1    LIG19    0.0000
     28 H1         25.9738   -9.3702    0.6421 H         1    LIG19    0.0000
     29 H2         28.4458  -12.8877    0.7758 H         1    LIG19    0.0000
     30 H3         31.7427   -4.8742    0.2046 H         1    LIG19    0.0000
     31 H4         34.2160   -4.5447    0.5844 H         1    LIG19    0.0000
     32 H5         35.5270   -6.4150    1.2628 H         1    LIG19    0.0000
     33 H6         32.1566  -10.0497    1.5112 H         1    LIG19    0.0000
     34 H7         29.8068   -6.8603    0.3180 H         1    LIG19    0.0000
     35 H8         34.7051   -9.5834    1.0722 H         1    LIG19    0.0000
     36 H9         38.7422   -6.8924    0.5592 H         1    LIG19    0.0000
     37 H10        36.3568   -7.0622    0.6602 H         1    LIG19    0.0000
     38 H11        36.5275  -10.6155    2.9332 H         1    LIG19    0.0000
     39 H12        40.0182   -8.5506    1.7456 H         1    LIG19    0.0000
     40 H13        40.3144  -10.2485    2.9867 H         1    LIG19    0.0000
     41 H14        39.0158  -10.5107    4.2132 H         1    LIG19    0.0000
     42 H15        39.1065  -11.5700    2.7540 H         1    LIG19    0.0000
@<TRIPOS>BOND
     1    1    2 2
     2    1    8 2
     3    2    3 ar
     4    2    7 ar
     5    3    4 ar
     6    4    5 ar
     7    4   27 2
     8    5    6 ar
     9    5   15 1
    10    6    7 ar
    11    6   26 2
    12    9   10 ar
    13    9   14 ar
    14    9   18 1
    15   10   11 ar
    16   10   16 ar
    17   11   12 ar
    18   11   17 ar
    19   12   13 ar
    20   13   14 ar
    21   15   16 ar
    22   15   17 ar
    23   18   21 1
    24   19   20 ar
    25   19   24 ar
    26   20   21 ar
    27   21   22 ar
    28   22   23 ar
    29   23   24 ar
    30   23   25 1
    31    3   28 1
    32    7   29 1
    33   12   30 1
    34   13   31 1
    35   14   32 1
    36   16   33 1
    37   17   34 1
    38   18   35 1
    39   19   36 1
    40   20   37 1
    41   22   38 1
    42   24   39 1
    43   25   40 1
    44   25   41 1
    45   25   42 1
@<TRIPOS>SUBSTRUCTURE
     1    LIG19    1   GROUP 1   LIG 1
@<TRIPOS>MOLECULE
50910145
   39    41    1     0     0
SMALL
USER_CHARGES


@<TRIPOS>ATOM
      1 N1         -2.9650   -5.3490    0.4990 N.ar      1    LIG20    0.0000
      2 N2         -1.9370   -6.1180    0.6740 N.am      1    LIG20    0.0000
      3 C1         -0.9060   -5.3970    1.1320 C.ar      1    LIG20    0.0000
      4 C2         -1.3270   -4.0800    1.2540 C.ar      1    LIG20    0.0000
      5 C3         -2.6570   -4.0810    0.8270 C.ar      1    LIG20    0.0000
      6 N3         -0.5710   -3.0970    1.7040 N.2       1    LIG20    0.0000
      7 N4         -0.9490   -1.9410    1.8460 N.2       1    LIG20    0.0000
      8 C4         -0.2210   -0.9350    2.2860 C.ar      1    LIG20    0.0000
      9 O1          0.2270   -5.8490    1.4070 O.2       1    LIG20    0.0000
     10 C5         -3.5570   -3.0030    0.7330 C.ar      1    LIG20    0.0000
     11 C6         -4.7750   -3.0380    1.4400 C.ar      1    LIG20    0.0000
     12 C7         -5.6810   -1.9670    1.3460 C.ar      1    LIG20    0.0000
     13 C8         -5.3900   -0.8490    0.5430 C.ar      1    LIG20    0.0000
     14 C9         -4.1750   -0.8190   -0.1720 C.ar      1    LIG20    0.0000
     15 C10        -3.2680   -1.8890   -0.0820 C.ar      1    LIG20    0.0000
     16 C11        -0.8470    0.3210    2.3930 C.ar      1    LIG20    0.0000
     17 C12        -0.1380    1.4490    2.8450 C.ar      1    LIG20    0.0000
     18 C13         1.2210    1.3090    3.1960 C.ar      1    LIG20    0.0000
     19 C14         1.8560    0.0600    3.0950 C.ar      1    LIG20    0.0000
     20 C15         1.1380   -1.0590    2.6420 C.ar      1    LIG20    0.0000
     21 O2         -6.3190    0.1510    0.5050 O.2       1    LIG20    0.0000
     22 C16        -6.1230    1.3530   -0.2460 C.3       1    LIG20    0.0000
     23 O3         -0.8250    2.6270    2.9170 O.2       1    LIG20    0.0000
     24 C17        -0.2150    3.8470    3.3460 C.3       1    LIG20    0.0000
     25 H1         -1.9161   -7.1310    0.4888 H         1    LIG20    0.0000
     26 H2         -5.0161   -3.8994    2.0628 H         1    LIG20    0.0000
     27 H3         -6.6185   -2.0032    1.9009 H         1    LIG20    0.0000
     28 H4         -3.9374    0.0403   -0.7991 H         1    LIG20    0.0000
     29 H5         -2.3355   -1.8575   -0.6456 H         1    LIG20    0.0000
     30 H6         -1.8978    0.4214    2.1214 H         1    LIG20    0.0000
     31 H7          1.7817    2.1750    3.5477 H         1    LIG20    0.0000
     32 H8          2.9064   -0.0408    3.3683 H         1    LIG20    0.0000
     33 H9          1.6331   -2.0270    2.5653 H         1    LIG20    0.0000
     34 H10        -7.0106    1.9685   -0.0997 H         1    LIG20    0.0000
     35 H11        -5.2275    1.8329    0.1487 H         1    LIG20    0.0000
     36 H12        -5.9999    1.0607   -1.2888 H         1    LIG20    0.0000
     37 H13        -0.9840    4.6185    3.3076 H         1    LIG20    0.0000
     38 H14         0.1446    3.6835    4.3619 H         1    LIG20    0.0000
     39 H15         0.6023    4.0547    2.6554 H         1    LIG20    0.0000
@<TRIPOS>BOND
     1    1    2 ar
     2    1    5 ar
     3    2    3 ar
     4    3    4 ar
     5    3    9 2
     6    4    5 ar
     7    4    6 2
     8    5   10 1
     9    6    7 2
    10    7    8 1
    11    8   16 ar
    12    8   20 ar
    13   10   11 ar
    14   10   15 ar
    15   11   12 ar
    16   12   13 ar
    17   13   14 ar
    18   13   21 2
    19   14   15 ar
    20   16   17 ar
    21   17   18 ar
    22   17   23 2
    23   18   19 ar
    24   19   20 ar
    25   21   22 1
    26   23   24 1
    27    2   25 1
    28   11   26 1
    29   12   27 1
    30   14   28 1
    31   15   29 1
    32   16   30 1
    33   18   31 1
    34   19   32 1
    35   20   33 1
    36   22   34 1
    37   22   35 1
    38   22   36 1
    39   24   37 1
    40   24   38 1
    41   24   39 1
@<TRIPOS>SUBSTRUCTURE
     1    LIG20    1   GROUP 1   LIG 1
@<TRIPOS>MOLECULE
50077211
   59    62    1     0     0
SMALL
USER_CHARGES


@<TRIPOS>ATOM
      1 C1          4.3640  -23.8170    0.5470 C.ar      1    LIG21    0.0000
      2 C2          4.2150  -24.9990   -0.2140 C.ar      1    LIG21    0.0000
      3 C3          4.6200  -26.2430    0.2910 C.ar      1    LIG21    0.0000
      4 C4          4.9400  -23.9260    1.8370 C.ar      1    LIG21    0.0000
      5 C5          5.3660  -25.1670    2.3640 C.ar      1    LIG21    0.0000
      6 C6          5.1890  -26.3290    1.5700 C.ar      1    LIG21    0.0000
      7 N1          5.5650  -27.5400    2.0440 N.pl3     1    LIG21    0.0000
      8 C7          6.1180  -27.7300    3.2690 C.ar      1    LIG21    0.0000
      9 C8          6.3170  -26.6070    4.0950 C.ar      1    LIG21    0.0000
     10 C9          5.9510  -25.3200    3.6490 C.ar      1    LIG21    0.0000
     11 C10         3.9450  -22.5550    0.0300 C.ar      1    LIG21    0.0000
     12 C11         6.1890  -24.2590    4.4990 C.2       1    LIG21    0.0000
     13 O1          6.7670  -23.2540    4.1170 O.co2     1    LIG21   -0.5000
     14 O2          5.8620  -24.3300    5.7770 O.co2     1    LIG21   -0.5000
     15 C12         6.4710  -29.0340    3.6690 C.2       1    LIG21    0.0000
     16 N2          6.2460  -30.0660    2.8260 N.am      1    LIG21    0.0000
     17 O3          6.9730  -29.2540    4.7960 O.2       1    LIG21    0.0000
     18 C13         6.5280  -31.4290    3.1300 C.3       1    LIG21    0.0000
     19 C14         8.0490  -31.6740    3.1720 C.3       1    LIG21    0.0000
     20 C15         5.8900  -32.3330    2.0510 C.3       1    LIG21    0.0000
     21 C16         4.4260  -32.1570    1.9490 C.ar      1    LIG21    0.0000
     22 C17         3.5900  -32.5240    3.0240 C.ar      1    LIG21    0.0000
     23 C18         2.1980  -32.3500    2.9360 C.ar      1    LIG21    0.0000
     24 C19         1.6290  -31.8080    1.7710 C.ar      1    LIG21    0.0000
     25 C20         2.4540  -31.4430    0.6930 C.ar      1    LIG21    0.0000
     26 C21         3.8460  -31.6190    0.7820 C.ar      1    LIG21    0.0000
     27 C22         3.3520  -21.5820    0.8690 C.ar      1    LIG21    0.0000
     28 C23         2.9340  -20.3440    0.3590 C.ar      1    LIG21    0.0000
     29 C24         3.1040  -20.0540   -1.0030 C.ar      1    LIG21    0.0000
     30 C25         3.6950  -20.9930   -1.8750 C.ar      1    LIG21    0.0000
     31 C26         4.1070  -22.2350   -1.3400 C.ar      1    LIG21    0.0000
     32 C27         3.8630  -20.6470   -3.3120 C.3       1    LIG21    0.0000
     33 F1          4.4540  -21.6370   -4.0640 F         1    LIG21    0.0000
     34 F2          2.6400  -20.3890   -3.8820 F         1    LIG21    0.0000
     35 F3          4.6470  -19.5260   -3.4400 F         1    LIG21    0.0000
     36 O4          0.2900  -31.6410    1.6930 O.2       1    LIG21    0.0000
     37 O5          8.3140  -33.0440    3.4620 O.2       1    LIG21    0.0000
     38 C28         9.6840  -33.4340    3.5020 C.2       1    LIG21    0.0000
     39 H1          3.7776  -24.9425   -1.2108 H         1    LIG21    0.0000
     40 H2          4.4926  -27.1430   -0.3105 H         1    LIG21    0.0000
     41 H3          5.0582  -23.0264    2.4411 H         1    LIG21    0.0000
     42 H4          5.4236  -28.3633    1.4414 H         1    LIG21    0.0000
     43 H5          6.7563  -26.7331    5.0845 H         1    LIG21    0.0000
     44 H6          5.8438  -29.8529    1.9020 H         1    LIG21    0.0000
     45 H7          6.1114  -31.6647    4.1093 H         1    LIG21    0.0000
     46 H8          8.5514  -31.0506    3.9117 H         1    LIG21    0.0000
     47 H9          8.4663  -31.4877    2.1824 H         1    LIG21    0.0000
     48 H10         6.0836  -33.3796    2.2862 H         1    LIG21    0.0000
     49 H11         6.2967  -32.0352    1.0846 H         1    LIG21    0.0000
     50 H12         4.0265  -32.9456    3.9295 H         1    LIG21    0.0000
     51 H13         1.5595  -32.6357    3.7719 H         1    LIG21    0.0000
     52 H14         2.0145  -31.0235   -0.2120 H         1    LIG21    0.0000
     53 H15         4.4816  -31.3374   -0.0575 H         1    LIG21    0.0000
     54 H16         3.2178  -21.7981    1.9289 H         1    LIG21    0.0000
     55 H17         2.4774  -19.6078    1.0205 H         1    LIG21    0.0000
     56 H18         2.7752  -19.0907   -1.3929 H         1    LIG21    0.0000
     57 H19         4.5639  -22.9697   -2.0030 H         1    LIG21    0.0000
     58 H20         9.9500  -34.4686    3.7188 H         1    LIG21    0.0000
     59 H21        10.4659  -32.6978    3.3158 H         1    LIG21    0.0000
@<TRIPOS>BOND
     1    1    2 ar
     2    1    4 ar
     3    1   11 1
     4    2    3 ar
     5    3    6 ar
     6    4    5 ar
     7    5    6 ar
     8    5   10 ar
     9    6    7 ar
    10    7    8 ar
    11    8    9 ar
    12    8   15 1
    13    9   10 ar
    14   10   12 1
    15   11   27 ar
    16   11   31 ar
    17   12   13 am
    18   12   14 am
    19   15   16 am
    20   15   17 2
    21   16   18 1
    22   18   19 1
    23   18   20 1
    24   19   37 1
    25   20   21 1
    26   21   22 ar
    27   21   26 ar
    28   22   23 ar
    29   23   24 ar
    30   24   25 ar
    31   24   36 2
    32   25   26 ar
    33   27   28 ar
    34   28   29 ar
    35   29   30 ar
    36   30   31 ar
    37   30   32 1
    38   32   33 1
    39   32   34 1
    40   32   35 1
    41   37   38 2
    42    2   39 1
    43    3   40 1
    44    4   41 1
    45    7   42 1
    46    9   43 1
    47   16   44 1
    48   18   45 1
    49   19   46 1
    50   19   47 1
    51   20   48 1
    52   20   49 1
    53   22   50 1
    54   23   51 1
    55   25   52 1
    56   26   53 1
    57   27   54 1
    58   28   55 1
    59   29   56 1
    60   31   57 1
    61   38   58 1
    62   38   59 1
@<TRIPOS>SUBSTRUCTURE
     1    LIG21    1   GROUP 1   LIG 1
@<TRIPOS>MOLECULE
184851
   54    56    1     0     0
SMALL
USER_CHARGES


@<TRIPOS>ATOM
      1 Cl1         3.3130   -2.9460    1.6520 Cl        1    LIG22    0.0000
      2 O1          3.7810   -9.5990    1.5950 O.3       1    LIG22    0.0000
      3 N1          6.2120   -8.1540    2.0150 N.pl3     1    LIG22    0.0000
      4 N2         10.7720   -7.7290    0.6630 N.pl3     1    LIG22    0.0000
      5 N3          8.4450   -8.0690    1.3470 N.ar      1    LIG22    0.0000
      6 N4          7.2850   -6.0670    1.7430 N.pl3     1    LIG22    0.0000
      7 N5         10.7510   -5.4970    0.7190 N.pl3     1    LIG22    0.0000
      8 N6          8.3470   -3.9380    1.4860 N.pl3     1    LIG22    0.0000
      9 C1          4.9460   -7.5990    2.3630 C.3       1    LIG22    0.0000
     10 C2          4.6280   -7.9120    3.8440 C.3       1    LIG22    0.0000
     11 C3          3.9020   -8.1950    1.4010 C.3       1    LIG22    0.0000
     12 C4          5.6810   -7.2680    4.7630 C.3       1    LIG22    0.0000
     13 C5          3.2380   -7.3880    4.2470 C.3       1    LIG22    0.0000
     14 C6         11.2280   -9.0730    0.5000 C.3       1    LIG22    0.0000
     15 C7          9.5440   -7.3430    1.0340 C.ar      1    LIG22    0.0000
     16 C8          7.3030   -7.4260    1.7020 C.ar      1    LIG22    0.0000
     17 C9          9.5400   -5.9570    1.0650 C.ar      1    LIG22    0.0000
     18 C10         8.3620   -5.2940    1.4340 C.ar      1    LIG22    0.0000
     19 C11        11.4880   -6.5990    0.4770 C.ar      1    LIG22    0.0000
     20 C12        11.6830   -9.3280   -0.9470 C.3       1    LIG22    0.0000
     21 C13        12.3740   -9.3830    1.4780 C.3       1    LIG22    0.0000
     22 C14         7.3060   -3.1530    1.8740 C.ar      1    LIG22    0.0000
     23 C15         5.9550   -3.4330    1.5640 C.ar      1    LIG22    0.0000
     24 C16         7.6100   -1.9850    2.5990 C.ar      1    LIG22    0.0000
     25 C17         4.9260   -2.5810    2.0080 C.ar      1    LIG22    0.0000
     26 C18         6.5870   -1.1280    3.0380 C.ar      1    LIG22    0.0000
     27 C19         5.2450   -1.4280    2.7480 C.ar      1    LIG22    0.0000
     28 H1          3.0729   -9.9354    0.9270 H         1    LIG22    0.0000
     29 H2          6.2993   -9.1802    2.0017 H         1    LIG22    0.0000
     30 H3          6.4114   -5.5983    2.0223 H         1    LIG22    0.0000
     31 H4         11.0526   -4.5144    0.6526 H         1    LIG22    0.0000
     32 H5          9.2112   -3.4543    1.2031 H         1    LIG22    0.0000
     33 H6          4.9410   -6.5134    2.2648 H         1    LIG22    0.0000
     34 H7          4.6429   -8.9962    3.9551 H         1    LIG22    0.0000
     35 H8          2.9250   -7.7783    1.6458 H         1    LIG22    0.0000
     36 H9          4.1512   -8.0080    0.3565 H         1    LIG22    0.0000
     37 H10         5.4072   -7.5206    5.7874 H         1    LIG22    0.0000
     38 H11         6.6469   -7.6903    4.4858 H         1    LIG22    0.0000
     39 H12         5.6431   -6.1930    4.5867 H         1    LIG22    0.0000
     40 H13         3.0917   -7.6465    5.2957 H         1    LIG22    0.0000
     41 H14         3.2473   -6.3090    4.0931 H         1    LIG22    0.0000
     42 H15         2.5116   -7.8830    3.6025 H         1    LIG22    0.0000
     43 H16        10.3923   -9.7370    0.7210 H         1    LIG22    0.0000
     44 H17        12.5334   -6.5806    0.1690 H         1    LIG22    0.0000
     45 H18        12.0154  -10.3648   -0.9985 H         1    LIG22    0.0000
     46 H19        10.8209   -9.1465   -1.5888 H         1    LIG22    0.0000
     47 H20        12.4955   -8.6312   -1.1531 H         1    LIG22    0.0000
     48 H21        12.6725  -10.4164    1.3018 H         1    LIG22    0.0000
     49 H22        13.1807   -8.6846    1.2553 H         1    LIG22    0.0000
     50 H23        11.9811   -9.2407    2.4847 H         1    LIG22    0.0000
     51 H24         5.7080   -4.3168    0.9758 H         1    LIG22    0.0000
     52 H25         8.6492   -1.7433    2.8219 H         1    LIG22    0.0000
     53 H26         6.8343   -0.2298    3.6039 H         1    LIG22    0.0000
     54 H27         4.4513   -0.7672    3.0965 H         1    LIG22    0.0000
@<TRIPOS>BOND
     1    1   25 2
     2    2   11 1
     3    3    9 1
     4    3   16 2
     5    4   14 1
     6    4   15 ar
     7    4   19 ar
     8    5   15 ar
     9    5   16 ar
    10    6   16 ar
    11    6   18 ar
    12    7   17 ar
    13    7   19 ar
    14    8   18 2
    15    8   22 1
    16    9   10 1
    17    9   11 1
    18   10   12 1
    19   10   13 1
    20   14   20 1
    21   14   21 1
    22   15   17 ar
    23   17   18 ar
    24   22   23 ar
    25   22   24 ar
    26   23   25 ar
    27   24   26 ar
    28   25   27 ar
    29   26   27 ar
    30    2   28 1
    31    3   29 1
    32    6   30 1
    33    7   31 1
    34    8   32 1
    35    9   33 1
    36   10   34 1
    37   11   35 1
    38   11   36 1
    39   12   37 1
    40   12   38 1
    41   12   39 1
    42   13   40 1
    43   13   41 1
    44   13   42 1
    45   14   43 1
    46   19   44 1
    47   20   45 1
    48   20   46 1
    49   20   47 1
    50   21   48 1
    51   21   49 1
    52   21   50 1
    53   23   51 1
    54   24   52 1
    55   26   53 1
    56   27   54 1
@<TRIPOS>SUBSTRUCTURE
     1    LIG22    1   GROUP 1   LIG 1
@<TRIPOS>MOLECULE
50077178
   60    63    1     0     0
SMALL
USER_CHARGES


@<TRIPOS>ATOM
      1 C1          6.5550   -7.8450    0.9010 C.ar      1    LIG23    0.0000
      2 C2          6.7800   -9.1840    0.5210 C.ar      1    LIG23    0.0000
      3 C3          7.9340   -9.8640    0.9400 C.ar      1    LIG23    0.0000
      4 C4          7.5170   -7.1960    1.7070 C.ar      1    LIG23    0.0000
      5 C5          8.6820   -7.8640    2.1500 C.ar      1    LIG23    0.0000
      6 C6          8.8810   -9.2090    1.7440 C.ar      1    LIG23    0.0000
      7 N1          9.9990   -9.8740    2.1220 N.pl3     1    LIG23    0.0000
      8 C7         10.9760   -9.3270    2.8880 C.ar      1    LIG23    0.0000
      9 C8         10.8210   -7.9960    3.3230 C.ar      1    LIG23    0.0000
     10 C9          9.6740   -7.2580    2.9630 C.ar      1    LIG23    0.0000
     11 C10         5.4180   -7.2030    0.4420 C.2       1    LIG23    0.0000
     12 C11         9.5620   -5.9670    3.4350 C.2       1    LIG23    0.0000
     13 O1         10.4880   -5.1760    3.3380 O.co2     1    LIG23   -0.5000
     14 O2          8.4680   -5.5620    4.0550 O.co2     1    LIG23   -0.5000
     15 C12        12.1050  -10.1010    3.2210 C.2       1    LIG23    0.0000
     16 N2         12.2010  -11.3650    2.7490 N.am      1    LIG23    0.0000
     17 O3         13.0140   -9.6390    3.9490 O.2       1    LIG23    0.0000
     18 C13        13.2800  -12.2550    3.0270 C.3       1    LIG23    0.0000
     19 C14        13.8630  -12.6920    1.7470 C.2       1    LIG23    0.0000
     20 C15        12.7630  -13.4710    3.8310 C.3       1    LIG23    0.0000
     21 C16        12.1770  -13.0790    5.1310 C.ar      1    LIG23    0.0000
     22 C17        10.8020  -13.2610    5.3830 C.ar      1    LIG23    0.0000
     23 C18        10.2450  -12.8710    6.6130 C.ar      1    LIG23    0.0000
     24 C19        11.0590  -12.2970    7.6040 C.ar      1    LIG23    0.0000
     25 C20        12.4320  -12.1150    7.3630 C.ar      1    LIG23    0.0000
     26 C21        12.9880  -12.5060    6.1330 C.ar      1    LIG23    0.0000
     27 C22         4.7680   -6.2460    1.1250 C.2       1    LIG23    0.0000
     28 O4         10.5170  -11.9220    8.7830 O.2       1    LIG23    0.0000
     29 C23         3.6410   -5.5930    0.6590 C.ar      1    LIG23    0.0000
     30 C24         2.6800   -6.2280   -0.1600 C.ar      1    LIG23    0.0000
     31 C25         1.5450   -5.5300   -0.6080 C.ar      1    LIG23    0.0000
     32 C26         1.3500   -4.1870   -0.2380 C.ar      1    LIG23    0.0000
     33 C27         2.2950   -3.5480    0.5850 C.ar      1    LIG23    0.0000
     34 C28         3.4290   -4.2490    1.0310 C.ar      1    LIG23    0.0000
     35 Cl1        -0.0150   -3.3470   -0.7790 Cl        1    LIG23    0.0000
     36 N3         15.1540  -12.4160    1.4660 N.am      1    LIG23    0.0000
     37 O5         13.1530  -13.3130    0.9230 O.2       1    LIG23    0.0000
     38 C29        15.7730  -12.8000    0.2490 C.2       1    LIG23    0.0000
     39 H1          6.0497   -9.6966   -0.1050 H         1    LIG23    0.0000
     40 H2          8.0952  -10.8999    0.6416 H         1    LIG23    0.0000
     41 H3          7.3575   -6.1566    1.9939 H         1    LIG23    0.0000
     42 H4         10.1137  -10.8491    1.8106 H         1    LIG23    0.0000
     43 H5         11.5912   -7.5342    3.9408 H         1    LIG23    0.0000
     44 H6          5.0260   -7.4915   -0.5333 H         1    LIG23    0.0000
     45 H7         11.4404  -11.7092    2.1457 H         1    LIG23    0.0000
     46 H8         14.0415  -11.7523    3.6233 H         1    LIG23    0.0000
     47 H9         13.5824  -14.1627    4.0265 H         1    LIG23    0.0000
     48 H10        11.9569  -13.9327    3.2609 H         1    LIG23    0.0000
     49 H11        10.1662  -13.7074    4.6184 H         1    LIG23    0.0000
     50 H12         9.1804  -13.0140    6.7983 H         1    LIG23    0.0000
     51 H13        13.0656  -11.6704    8.1305 H         1    LIG23    0.0000
     52 H14        14.0536  -12.3655    5.9519 H         1    LIG23    0.0000
     53 H15         5.1521   -5.9670    2.1062 H         1    LIG23    0.0000
     54 H16         2.8204   -7.2700   -0.4473 H         1    LIG23    0.0000
     55 H17         0.8145   -6.0306   -1.2435 H         1    LIG23    0.0000
     56 H18         2.1479   -2.5083    0.8772 H         1    LIG23    0.0000
     57 H19         4.1537   -3.7476    1.6725 H         1    LIG23    0.0000
     58 H20        15.7129  -11.9053    2.1644 H         1    LIG23    0.0000
     59 H21        16.8194  -12.5538    0.0684 H         1    LIG23    0.0000
     60 H22        15.2023  -13.3413   -0.5056 H         1    LIG23    0.0000
@<TRIPOS>BOND
     1    1    2 ar
     2    1    4 ar
     3    1   11 1
     4    2    3 ar
     5    3    6 ar
     6    4    5 ar
     7    5    6 ar
     8    5   10 ar
     9    6    7 ar
    10    7    8 ar
    11    8    9 ar
    12    8   15 1
    13    9   10 ar
    14   10   12 1
    15   11   27 2
    16   12   13 am
    17   12   14 am
    18   15   16 am
    19   15   17 2
    20   16   18 1
    21   18   19 1
    22   18   20 1
    23   19   36 am
    24   19   37 2
    25   20   21 1
    26   21   22 ar
    27   21   26 ar
    28   22   23 ar
    29   23   24 ar
    30   24   25 ar
    31   24   28 2
    32   25   26 ar
    33   27   29 1
    34   29   30 ar
    35   29   34 ar
    36   30   31 ar
    37   31   32 ar
    38   32   33 ar
    39   32   35 2
    40   33   34 ar
    41   36   38 2
    42    2   39 1
    43    3   40 1
    44    4   41 1
    45    7   42 1
    46    9   43 1
    47   11   44 1
    48   16   45 1
    49   18   46 1
    50   20   47 1
    51   20   48 1
    52   22   49 1
    53   23   50 1
    54   25   51 1
    55   26   52 1
    56   27   53 1
    57   30   54 1
    58   31   55 1
    59   33   56 1
    60   34   57 1
    61   36   58 1
    62   38   59 1
    63   38   60 1
@<TRIPOS>SUBSTRUCTURE
     1    LIG23    1   GROUP 1   LIG 1
@<TRIPOS>MOLECULE
50436576
   40    42    1     0     0
SMALL
USER_CHARGES


@<TRIPOS>ATOM
      1 C1         -2.1510  -13.3790    2.5320 C.3       1    LIG24    0.0000
      2 C2         -2.6800  -12.5470    1.4410 C.ar      1    LIG24    0.0000
      3 C3         -2.7890  -11.1550    1.6140 C.ar      1    LIG24    0.0000
      4 C4         -3.2970  -10.3400    0.5860 C.ar      1    LIG24    0.0000
      5 C5         -3.4120   -8.8880    0.7960 C.3       1    LIG24    0.0000
      6 C6         -3.6910  -10.9310   -0.6310 C.ar      1    LIG24    0.0000
      7 C7         -3.5760  -12.3190   -0.8310 C.ar      1    LIG24    0.0000
      8 N1         -3.9940  -12.8140   -2.0250 N.pl3     1    LIG24    0.0000
      9 C8         -3.4400  -13.8350   -2.7230 C.ar      1    LIG24    0.0000
     10 N2         -3.9990  -14.1670   -3.9100 N.pl3     1    LIG24    0.0000
     11 C9         -3.5080  -15.1690   -4.6780 C.ar      1    LIG24    0.0000
     12 C10        -2.3880  -15.8950   -4.2520 C.ar      1    LIG24    0.0000
     13 C11        -1.8090  -15.5440   -3.0190 C.ar      1    LIG24    0.0000
     14 N3         -2.3520  -14.5290   -2.3040 N.pl3     1    LIG24    0.0000
     15 C12        -0.6900  -16.2110   -2.4960 C.ar      1    LIG24    0.0000
     16 N4         -0.0730  -17.2360   -3.1130 N.pl3     1    LIG24    0.0000
     17 C13         0.9640  -17.7080   -2.4120 C.ar      1    LIG24    0.0000
     18 C14         1.7900  -18.8260   -2.8730 C.3       1    LIG24    0.0000
     19 C15         1.1490  -17.0240   -1.2180 C.ar      1    LIG24    0.0000
     20 S1         -0.0030  -15.7590   -0.9690 S.2       1    LIG24    0.0000
     21 C16        -3.0850  -13.1230    0.2200 C.ar      1    LIG24    0.0000
     22 H1         -2.1578  -14.4101    2.1785 H         1    LIG24    0.0000
     23 H2         -1.1400  -13.0282    2.7389 H         1    LIG24    0.0000
     24 H3         -2.8113  -13.2397    3.3879 H         1    LIG24    0.0000
     25 H4         -2.4763  -10.7029    2.5552 H         1    LIG24    0.0000
     26 H5         -3.8238   -8.4651   -0.1203 H         1    LIG24    0.0000
     27 H6         -4.0787   -8.7407    1.6456 H         1    LIG24    0.0000
     28 H7         -2.4082   -8.5149    0.9991 H         1    LIG24    0.0000
     29 H8         -4.0903  -10.3043   -1.4284 H         1    LIG24    0.0000
     30 H9         -4.8206  -12.3652   -2.4448 H         1    LIG24    0.0000
     31 H10        -4.8220  -13.6423   -4.2391 H         1    LIG24    0.0000
     32 H11        -3.9846  -15.4106   -5.6281 H         1    LIG24    0.0000
     33 H12        -1.9789  -16.7049   -4.8560 H         1    LIG24    0.0000
     34 H13        -1.9205  -14.2735   -1.4043 H         1    LIG24    0.0000
     35 H14        -0.3670  -17.6151   -4.0245 H         1    LIG24    0.0000
     36 H15         2.5522  -18.9941   -2.1121 H         1    LIG24    0.0000
     37 H16         1.1297  -19.6863   -2.9821 H         1    LIG24    0.0000
     38 H17         2.2274  -18.5275   -3.8257 H         1    LIG24    0.0000
     39 H18         1.9416  -17.2609   -0.5083 H         1    LIG24    0.0000
     40 H19        -3.0182  -14.2026    0.0858 H         1    LIG24    0.0000
@<TRIPOS>BOND
     1    1    2 1
     2    2    3 ar
     3    2   21 ar
     4    3    4 ar
     5    4    5 1
     6    4    6 ar
     7    6    7 ar
     8    7    8 1
     9    7   21 ar
    10    8    9 1
    11    9   10 ar
    12    9   14 ar
    13   10   11 ar
    14   11   12 ar
    15   12   13 ar
    16   13   14 ar
    17   13   15 1
    18   15   16 ar
    19   15   20 ar
    20   16   17 ar
    21   17   18 1
    22   17   19 ar
    23   19   20 ar
    24    1   22 1
    25    1   23 1
    26    1   24 1
    27    3   25 1
    28    5   26 1
    29    5   27 1
    30    5   28 1
    31    6   29 1
    32    8   30 1
    33   10   31 1
    34   11   32 1
    35   12   33 1
    36   14   34 1
    37   16   35 1
    38   18   36 1
    39   18   37 1
    40   18   38 1
    41   19   39 1
    42   21   40 1
@<TRIPOS>SUBSTRUCTURE
     1    LIG24    1   GROUP 1   LIG 1
@<TRIPOS>MOLECULE
51251870
   39    41    1     0     0
SMALL
USER_CHARGES


@<TRIPOS>ATOM
      1 S1          4.6570   -3.9410    0.3540 S.2       1    LIG25    0.0000
      2 C1          3.8470   -5.4290    0.7260 C.ar      1    LIG25    0.0000
      3 C2          4.5720   -6.6200    0.9480 C.ar      1    LIG25    0.0000
      4 N1          3.9420   -7.7820    1.2620 N.pl3     1    LIG25    0.0000
      5 C3          4.6050   -8.9440    1.4930 C.ar      1    LIG25    0.0000
      6 N2          5.9550   -8.9450    1.4080 N.pl3     1    LIG25    0.0000
      7 C4          6.6510   -7.8280    1.0970 C.ar      1    LIG25    0.0000
      8 C5          5.9760   -6.6240    0.8580 C.ar      1    LIG25    0.0000
      9 N3          3.9920  -10.1050    1.8260 N.pl3     1    LIG25    0.0000
     10 C6          2.6570  -10.2890    1.9730 C.ar      1    LIG25    0.0000
     11 C7          1.7190   -9.8460    1.0170 C.ar      1    LIG25    0.0000
     12 C8          0.3320  -10.0560    1.1920 C.ar      1    LIG25    0.0000
     13 N4         -0.5690   -9.5990    0.2710 N.pl3     1    LIG25    0.0000
     14 O1         -1.7400   -9.8660    0.3410 O.2       1    LIG25    0.0000
     15 O2         -0.2370   -8.8960   -0.6510 O.2       1    LIG25    0.0000
     16 C9         -0.0960  -10.7490    2.3460 C.ar      1    LIG25    0.0000
     17 C10         0.8300  -11.2170    3.2930 C.ar      1    LIG25    0.0000
     18 C11         2.2020  -10.9900    3.1040 C.ar      1    LIG25    0.0000
     19 C12         2.4580   -5.2670    0.7750 C.ar      1    LIG25    0.0000
     20 N5          2.0680   -4.0090    0.5320 N.pl3     1    LIG25    0.0000
     21 C13         3.1000   -3.1900    0.2940 C.ar      1    LIG25    0.0000
     22 C14         2.9320   -1.7670    0.0050 C.3       1    LIG25    0.0000
     23 C15         1.4690   -6.3160    1.0470 C.3       1    LIG25    0.0000
     24 H1          2.9141   -7.7814    1.3278 H         1    LIG25    0.0000
     25 H2          6.4671   -9.8209    1.5851 H         1    LIG25    0.0000
     26 H3          7.7385   -7.8646    1.0322 H         1    LIG25    0.0000
     27 H4          6.5236   -5.7150    0.6091 H         1    LIG25    0.0000
     28 H5          4.5964  -10.9243    1.9821 H         1    LIG25    0.0000
     29 H6          2.0714   -9.3304    0.1237 H         1    LIG25    0.0000
     30 H7         -1.1603  -10.9232    2.5040 H         1    LIG25    0.0000
     31 H8          0.4830  -11.7563    4.1744 H         1    LIG25    0.0000
     32 H9          2.9187  -11.3590    3.8377 H         1    LIG25    0.0000
     33 H10         1.0838   -3.7054    0.5286 H         1    LIG25    0.0000
     34 H11         1.8619   -1.5611    0.0291 H         1    LIG25    0.0000
     35 H12         3.4677   -1.2190    0.7801 H         1    LIG25    0.0000
     36 H13         3.3566   -1.5902   -0.9832 H         1    LIG25    0.0000
     37 H14         0.4866   -5.8453    1.0091 H         1    LIG25    0.0000
     38 H15         1.5858   -7.0730    0.2715 H         1    LIG25    0.0000
     39 H16         1.6901   -6.7133    2.0376 H         1    LIG25    0.0000
@<TRIPOS>BOND
     1    1    2 ar
     2    1   21 ar
     3    2    3 1
     4    2   19 ar
     5    3    4 ar
     6    3    8 ar
     7    4    5 ar
     8    5    6 ar
     9    5    9 1
    10    6    7 ar
    11    7    8 ar
    12    9   10 1
    13   10   11 ar
    14   10   18 ar
    15   11   12 ar
    16   12   13 1
    17   12   16 ar
    18   13   14 2
    19   13   15 2
    20   16   17 ar
    21   17   18 ar
    22   19   20 ar
    23   19   23 1
    24   20   21 ar
    25   21   22 1
    26    4   24 1
    27    6   25 1
    28    7   26 1
    29    8   27 1
    30    9   28 1
    31   11   29 1
    32   16   30 1
    33   17   31 1
    34   18   32 1
    35   20   33 1
    36   22   34 1
    37   22   35 1
    38   22   36 1
    39   23   37 1
    40   23   38 1
    41   23   39 1
@<TRIPOS>SUBSTRUCTURE
     1    LIG25    1   GROUP 1   LIG 1
@<TRIPOS>MOLECULE
50077215
   55    58    1     0     0
SMALL
USER_CHARGES


@<TRIPOS>ATOM
      1 C1         13.0510   -3.1640    0.4850 C.ar      1    LIG26    0.0000
      2 C2         13.1130   -4.4060   -0.1880 C.ar      1    LIG26    0.0000
      3 C3         13.7940   -5.5000    0.3660 C.ar      1    LIG26    0.0000
      4 C4         13.6970   -3.0590    1.7400 C.ar      1    LIG26    0.0000
      5 C5         14.3810   -4.1500    2.3250 C.ar      1    LIG26    0.0000
      6 C6         14.4260   -5.3750    1.6130 C.ar      1    LIG26    0.0000
      7 N1         15.0870   -6.4370    2.1300 N.pl3     1    LIG26    0.0000
      8 C7         15.7360   -6.4120    3.3220 C.ar      1    LIG26    0.0000
      9 C8         15.7190   -5.2180    4.0680 C.ar      1    LIG26    0.0000
     10 C9         15.0380   -4.0830    3.5810 C.ar      1    LIG26    0.0000
     11 C10        12.3580   -2.0520   -0.0840 C.ar      1    LIG26    0.0000
     12 C11        15.0350   -2.9470    4.3640 C.2       1    LIG26    0.0000
     13 O1         16.0670   -2.5100    4.8480 O.co2     1    LIG26   -0.5000
     14 O2         13.9070   -2.3250    4.6590 O.co2     1    LIG26   -0.5000
     15 C12        16.3980   -7.5710    3.7730 C.2       1    LIG26    0.0000
     16 N2         16.3420   -8.7030    3.0340 N.am      1    LIG26    0.0000
     17 O3         17.0510   -7.5670    4.8420 O.2       1    LIG26    0.0000
     18 C13        16.9810   -9.9250    3.3940 C.3       1    LIG26    0.0000
     19 C14        16.9510  -10.8190    2.2620 C.2       1    LIG26    0.0000
     20 C15        16.2810  -10.5710    4.6170 C.3       1    LIG26    0.0000
     21 C16        16.9550  -11.8030    5.0770 C.ar      1    LIG26    0.0000
     22 O4         18.0490  -11.5140    1.9710 O.2       1    LIG26    0.0000
     23 O5         15.8930  -11.0330    1.6860 O.co2     1    LIG26    0.0000
     24 C17        17.9960  -12.5340    0.9730 C.2       1    LIG26    0.0000
     25 C18        18.2570  -11.7400    5.6130 C.ar      1    LIG26    0.0000
     26 C19        18.9090  -12.9100    6.0400 C.ar      1    LIG26    0.0000
     27 C20        18.2630  -14.1530    5.9370 C.ar      1    LIG26    0.0000
     28 C21        16.9630  -14.2240    5.4080 C.ar      1    LIG26    0.0000
     29 C22        16.3120  -13.0540    4.9810 C.ar      1    LIG26    0.0000
     30 O6         18.8950  -15.2740    6.3490 O.2       1    LIG26    0.0000
     31 C23        12.3560   -1.8280   -1.4820 C.ar      1    LIG26    0.0000
     32 C24        11.6760   -0.7350   -2.0430 C.ar      1    LIG26    0.0000
     33 C25        10.9810    0.1610   -1.2160 C.ar      1    LIG26    0.0000
     34 C26        10.9660   -0.0380    0.1760 C.ar      1    LIG26    0.0000
     35 C27        11.6500   -1.1350    0.7320 C.ar      1    LIG26    0.0000
     36 Cl1        10.1270    1.0380    1.1760 Cl        1    LIG26    0.0000
     37 H1         12.6225   -4.5153   -1.1552 H         1    LIG26    0.0000
     38 H2         13.8324   -6.4472   -0.1719 H         1    LIG26    0.0000
     39 H3         13.6664   -2.1081    2.2720 H         1    LIG26    0.0000
     40 H4         15.0982   -7.3132    1.5886 H         1    LIG26    0.0000
     41 H5         16.2349   -5.1706    5.0270 H         1    LIG26    0.0000
     42 H6         15.8038   -8.6802    2.1561 H         1    LIG26    0.0000
     43 H7         18.0154   -9.7240    3.6729 H         1    LIG26    0.0000
     44 H8         15.2532  -10.8295    4.3621 H         1    LIG26    0.0000
     45 H9         16.3457   -9.8676    5.4472 H         1    LIG26    0.0000
     46 H10        18.8915  -13.1062    0.7305 H         1    LIG26    0.0000
     47 H11        17.0601  -12.7403    0.4538 H         1    LIG26    0.0000
     48 H12        18.7618  -10.7776    5.6970 H         1    LIG26    0.0000
     49 H13        19.9168  -12.8525    6.4514 H         1    LIG26    0.0000
     50 H14        16.4592  -15.1873    5.3288 H         1    LIG26    0.0000
     51 H15        15.3031  -13.1141    4.5728 H         1    LIG26    0.0000
     52 H16        12.8922   -2.5167   -2.1349 H         1    LIG26    0.0000
     53 H17        11.6879   -0.5822   -3.1222 H         1    LIG26    0.0000
     54 H18        10.4538    1.0096   -1.6519 H         1    LIG26    0.0000
     55 H19        11.6349   -1.2823    1.8119 H         1    LIG26    0.0000
@<TRIPOS>BOND
     1    1    2 ar
     2    1    4 ar
     3    1   11 1
     4    2    3 ar
     5    3    6 ar
     6    4    5 ar
     7    5    6 ar
     8    5   10 ar
     9    6    7 ar
    10    7    8 ar
    11    8    9 ar
    12    8   15 1
    13    9   10 ar
    14   10   12 1
    15   11   31 ar
    16   11   35 ar
    17   12   13 am
    18   12   14 am
    19   15   16 am
    20   15   17 2
    21   16   18 1
    22   18   19 1
    23   18   20 1
    24   19   22 1
    25   19   23 2
    26   20   21 1
    27   21   25 ar
    28   21   29 ar
    29   22   24 2
    30   25   26 ar
    31   26   27 ar
    32   27   28 ar
    33   27   30 2
    34   28   29 ar
    35   31   32 ar
    36   32   33 ar
    37   33   34 ar
    38   34   35 ar
    39   34   36 2
    40    2   37 1
    41    3   38 1
    42    4   39 1
    43    7   40 1
    44    9   41 1
    45   16   42 1
    46   18   43 1
    47   20   44 1
    48   20   45 1
    49   24   46 1
    50   24   47 1
    51   25   48 1
    52   26   49 1
    53   28   50 1
    54   29   51 1
    55   31   52 1
    56   32   53 1
    57   33   54 1
    58   35   55 1
@<TRIPOS>SUBSTRUCTURE
     1    LIG26    1   GROUP 1   LIG 1
@<TRIPOS>MOLECULE
50519895
   51    54    1     0     0
SMALL
USER_CHARGES


@<TRIPOS>ATOM
      1 N1          2.0310    3.2770    0.6600 N.am      1    LIG27    0.0000
      2 C1          1.6400    2.0730    0.1810 C.ar      1    LIG27    0.0000
      3 C2          2.2870    1.0080    0.8180 C.ar      1    LIG27    0.0000
      4 S1          3.4060    1.5440    2.0300 S.2       1    LIG27    0.0000
      5 C3          2.9530    3.1640    1.6370 C.ar      1    LIG27    0.0000
      6 C4          0.6470    1.9180   -0.8980 C.3       1    LIG27    0.0000
      7 O1          3.4630    4.1400    2.2290 O.2       1    LIG27    0.0000
      8 C5          2.1030   -0.3730    0.5740 C.ar      1    LIG27    0.0000
      9 C6          2.8320   -1.3300    1.3050 C.ar      1    LIG27    0.0000
     10 C7          2.6000   -2.6860    1.0390 C.ar      1    LIG27    0.0000
     11 N2          1.6940   -3.0490    0.1020 N.pl3     1    LIG27    0.0000
     12 C8          0.9970   -2.1310   -0.6060 C.ar      1    LIG27    0.0000
     13 N3          1.2170   -0.8150   -0.3540 N.pl3     1    LIG27    0.0000
     14 N4          0.1010   -2.5730   -1.5180 N.pl3     1    LIG27    0.0000
     15 C9         -0.6730   -1.7840   -2.3020 C.ar      1    LIG27    0.0000
     16 C10        -2.8960   -1.2270   -3.1410 C.ar      1    LIG27    0.0000
     17 C11        -2.0610   -2.0180   -2.3330 C.ar      1    LIG27    0.0000
     18 C12        -0.1270   -0.7690   -3.1140 C.ar      1    LIG27    0.0000
     19 C13        -0.9620    0.0220   -3.9210 C.ar      1    LIG27    0.0000
     20 C14        -2.3530   -0.1990   -3.9360 C.ar      1    LIG27    0.0000
     21 C15         1.5320    4.5300    0.1910 C.3       1    LIG27    0.0000
     22 N5         -3.1620    0.5670   -4.7160 N.pl3     1    LIG27    0.0000
     23 C16        -3.6220    0.6490   -7.0830 C.3       1    LIG27    0.0000
     24 C17        -3.9750   -0.0060   -5.7380 C.3       1    LIG27    0.0000
     25 C18        -3.2070    1.9870   -4.5820 C.3       1    LIG27    0.0000
     26 C19        -2.8570    2.6300   -5.9340 C.3       1    LIG27    0.0000
     27 N6         -3.7390    2.1140   -6.9940 N.pl3     1    LIG27    0.0000
     28 H1          0.5314    0.8484   -1.0735 H         1    LIG27    0.0000
     29 H2         -0.2789    2.3735   -0.5468 H         1    LIG27    0.0000
     30 H3          1.0447    2.4316   -1.7733 H         1    LIG27    0.0000
     31 H4          3.5580   -1.0241    2.0583 H         1    LIG27    0.0000
     32 H5          3.1505   -3.4499    1.5880 H         1    LIG27    0.0000
     33 H6          1.5308   -4.0501   -0.0768 H         1    LIG27    0.0000
     34 H7          0.6850   -0.1176   -0.8940 H         1    LIG27    0.0000
     35 H8         -0.0012   -3.5923   -1.6252 H         1    LIG27    0.0000
     36 H9         -3.9704   -1.4103   -3.1524 H         1    LIG27    0.0000
     37 H10        -2.4901   -2.8164   -1.7275 H         1    LIG27    0.0000
     38 H11         0.9493   -0.5969   -3.1157 H         1    LIG27    0.0000
     39 H12        -0.5313    0.8104   -4.5383 H         1    LIG27    0.0000
     40 H13         2.0335    5.3082    0.7663 H         1    LIG27    0.0000
     41 H14         1.7727    4.5918   -0.8703 H         1    LIG27    0.0000
     42 H15         0.4557    4.5289    0.3630 H         1    LIG27    0.0000
     43 H16        -4.2843    0.2906   -7.8711 H         1    LIG27    0.0000
     44 H17        -2.5827    0.4235   -7.3219 H         1    LIG27    0.0000
     45 H18        -5.0098    0.2214   -5.4818 H         1    LIG27    0.0000
     46 H19        -3.8418   -1.0878   -5.7466 H         1    LIG27    0.0000
     47 H20        -2.4518    2.2572   -3.8439 H         1    LIG27    0.0000
     48 H21        -4.1880    2.2871   -4.2136 H         1    LIG27    0.0000
     49 H22        -1.8216    2.4224   -6.2040 H         1    LIG27    0.0000
     50 H23        -3.0262    3.7048   -5.8682 H         1    LIG27    0.0000
     51 H24        -4.7138    2.3619   -6.7723 H         1    LIG27    0.0000
@<TRIPOS>BOND
     1    1    2 ar
     2    1    5 ar
     3    1   21 1
     4    2    3 ar
     5    2    6 1
     6    3    4 ar
     7    3    8 1
     8    4    5 ar
     9    5    7 2
    10    8    9 ar
    11    8   13 ar
    12    9   10 ar
    13   10   11 ar
    14   11   12 ar
    15   12   13 ar
    16   12   14 1
    17   14   15 1
    18   15   17 ar
    19   15   18 ar
    20   16   17 ar
    21   16   20 ar
    22   18   19 ar
    23   19   20 ar
    24   20   22 1
    25   22   24 1
    26   22   25 1
    27   23   24 1
    28   23   27 1
    29   25   26 1
    30   26   27 1
    31    6   28 1
    32    6   29 1
    33    6   30 1
    34    9   31 1
    35   10   32 1
    36   11   33 1
    37   13   34 1
    38   14   35 1
    39   16   36 1
    40   17   37 1
    41   18   38 1
    42   19   39 1
    43   21   40 1
    44   21   41 1
    45   21   42 1
    46   23   43 1
    47   23   44 1
    48   24   45 1
    49   24   46 1
    50   25   47 1
    51   25   48 1
    52   26   49 1
    53   26   50 1
    54   27   51 1
@<TRIPOS>SUBSTRUCTURE
     1    LIG27    1   GROUP 1   LIG 1
@<TRIPOS>MOLECULE
153791
   51    54    1     0     0
SMALL
USER_CHARGES


@<TRIPOS>ATOM
      1 N1          2.0310    3.2770    0.6600 N.am      1    LIG28    0.0000
      2 C1          1.6400    2.0730    0.1810 C.ar      1    LIG28    0.0000
      3 C2          2.2870    1.0080    0.8180 C.ar      1    LIG28    0.0000
      4 S1          3.4060    1.5440    2.0300 S.2       1    LIG28    0.0000
      5 C3          2.9530    3.1640    1.6370 C.ar      1    LIG28    0.0000
      6 C4          0.6470    1.9180   -0.8980 C.3       1    LIG28    0.0000
      7 O1          3.4630    4.1400    2.2290 O.2       1    LIG28    0.0000
      8 C5          2.1030   -0.3730    0.5740 C.ar      1    LIG28    0.0000
      9 C6          2.8320   -1.3300    1.3050 C.ar      1    LIG28    0.0000
     10 C7          2.6000   -2.6860    1.0390 C.ar      1    LIG28    0.0000
     11 N2          1.6940   -3.0490    0.1020 N.pl3     1    LIG28    0.0000
     12 C8          0.9970   -2.1310   -0.6060 C.ar      1    LIG28    0.0000
     13 N3          1.2170   -0.8150   -0.3540 N.pl3     1    LIG28    0.0000
     14 N4          0.1010   -2.5730   -1.5180 N.pl3     1    LIG28    0.0000
     15 C9         -0.6730   -1.7840   -2.3020 C.ar      1    LIG28    0.0000
     16 C10        -2.8960   -1.2270   -3.1410 C.ar      1    LIG28    0.0000
     17 C11        -2.0610   -2.0180   -2.3330 C.ar      1    LIG28    0.0000
     18 C12        -0.1270   -0.7690   -3.1140 C.ar      1    LIG28    0.0000
     19 C13        -0.9620    0.0220   -3.9210 C.ar      1    LIG28    0.0000
     20 C14        -2.3530   -0.1990   -3.9360 C.ar      1    LIG28    0.0000
     21 C15         1.5320    4.5300    0.1910 C.3       1    LIG28    0.0000
     22 N5         -3.1620    0.5670   -4.7160 N.pl3     1    LIG28    0.0000
     23 C16        -3.6220    0.6490   -7.0830 C.3       1    LIG28    0.0000
     24 C17        -3.9750   -0.0060   -5.7380 C.3       1    LIG28    0.0000
     25 C18        -3.2070    1.9870   -4.5820 C.3       1    LIG28    0.0000
     26 C19        -2.8570    2.6300   -5.9340 C.3       1    LIG28    0.0000
     27 N6         -3.7390    2.1140   -6.9940 N.pl3     1    LIG28    0.0000
     28 H1          0.5314    0.8484   -1.0735 H         1    LIG28    0.0000
     29 H2         -0.2789    2.3735   -0.5468 H         1    LIG28    0.0000
     30 H3          1.0447    2.4316   -1.7733 H         1    LIG28    0.0000
     31 H4          3.5580   -1.0241    2.0583 H         1    LIG28    0.0000
     32 H5          3.1505   -3.4499    1.5880 H         1    LIG28    0.0000
     33 H6          1.5308   -4.0501   -0.0768 H         1    LIG28    0.0000
     34 H7          0.6850   -0.1176   -0.8940 H         1    LIG28    0.0000
     35 H8         -0.0012   -3.5923   -1.6252 H         1    LIG28    0.0000
     36 H9         -3.9704   -1.4103   -3.1524 H         1    LIG28    0.0000
     37 H10        -2.4901   -2.8164   -1.7275 H         1    LIG28    0.0000
     38 H11         0.9493   -0.5969   -3.1157 H         1    LIG28    0.0000
     39 H12        -0.5313    0.8104   -4.5383 H         1    LIG28    0.0000
     40 H13         2.0335    5.3082    0.7663 H         1    LIG28    0.0000
     41 H14         1.7727    4.5918   -0.8703 H         1    LIG28    0.0000
     42 H15         0.4557    4.5289    0.3630 H         1    LIG28    0.0000
     43 H16        -4.2843    0.2906   -7.8711 H         1    LIG28    0.0000
     44 H17        -2.5827    0.4235   -7.3219 H         1    LIG28    0.0000
     45 H18        -5.0098    0.2214   -5.4818 H         1    LIG28    0.0000
     46 H19        -3.8418   -1.0878   -5.7466 H         1    LIG28    0.0000
     47 H20        -2.4518    2.2572   -3.8439 H         1    LIG28    0.0000
     48 H21        -4.1880    2.2871   -4.2136 H         1    LIG28    0.0000
     49 H22        -1.8216    2.4224   -6.2040 H         1    LIG28    0.0000
     50 H23        -3.0262    3.7048   -5.8682 H         1    LIG28    0.0000
     51 H24        -4.7138    2.3619   -6.7723 H         1    LIG28    0.0000
@<TRIPOS>BOND
     1    1    2 ar
     2    1    5 ar
     3    1   21 1
     4    2    3 ar
     5    2    6 1
     6    3    4 ar
     7    3    8 1
     8    4    5 ar
     9    5    7 2
    10    8    9 ar
    11    8   13 ar
    12    9   10 ar
    13   10   11 ar
    14   11   12 ar
    15   12   13 ar
    16   12   14 1
    17   14   15 1
    18   15   17 ar
    19   15   18 ar
    20   16   17 ar
    21   16   20 ar
    22   18   19 ar
    23   19   20 ar
    24   20   22 1
    25   22   24 1
    26   22   25 1
    27   23   24 1
    28   23   27 1
    29   25   26 1
    30   26   27 1
    31    6   28 1
    32    6   29 1
    33    6   30 1
    34    9   31 1
    35   10   32 1
    36   11   33 1
    37   13   34 1
    38   14   35 1
    39   16   36 1
    40   17   37 1
    41   18   38 1
    42   19   39 1
    43   21   40 1
    44   21   41 1
    45   21   42 1
    46   23   43 1
    47   23   44 1
    48   24   45 1
    49   24   46 1
    50   25   47 1
    51   25   48 1
    52   26   49 1
    53   26   50 1
    54   27   51 1
@<TRIPOS>SUBSTRUCTURE
     1    LIG28    1   GROUP 1   LIG 1
@<TRIPOS>MOLECULE
50579843
   55    58    1     0     0
SMALL
USER_CHARGES


@<TRIPOS>ATOM
      1 C1         12.4410  -17.2360    0.5070 C.ar      1    LIG29    0.0000
      2 C2         12.5370  -18.6350    0.4960 C.ar      1    LIG29    0.0000
      3 N1         13.7490  -19.2360    0.4410 N.pl3     1    LIG29    0.0000
      4 C3         14.8940  -18.5170    0.3930 C.ar      1    LIG29    0.0000
      5 N2         14.8090  -17.1640    0.4050 N.pl3     1    LIG29    0.0000
      6 C4         13.6340  -16.4910    0.4610 C.ar      1    LIG29    0.0000
      7 N3         16.0840  -19.1580    0.3400 N.pl3     1    LIG29    0.0000
      8 C5         17.2670  -18.5050    0.2860 C.ar      1    LIG29    0.0000
      9 C6         18.0120  -18.2990    1.4620 C.ar      1    LIG29    0.0000
     10 C7         19.2120  -17.5690    1.4170 C.ar      1    LIG29    0.0000
     11 C8         19.6810  -17.0450    0.1960 C.ar      1    LIG29    0.0000
     12 C9         18.9430  -17.2700   -0.9820 C.ar      1    LIG29    0.0000
     13 C10        17.7420  -17.9980   -0.9390 C.ar      1    LIG29    0.0000
     14 C11        13.6180  -15.0810    0.4760 C.ar      1    LIG29    0.0000
     15 S1         12.1290  -14.1960    0.5450 S.2       1    LIG29    0.0000
     16 C12        13.0740  -12.7470    0.5350 C.ar      1    LIG29    0.0000
     17 N4         14.3990  -12.9370    0.4800 N.pl3     1    LIG29    0.0000
     18 C13        14.7310  -14.2340    0.4450 C.ar      1    LIG29    0.0000
     19 C14        16.1400  -14.6450    0.3820 C.3       1    LIG29    0.0000
     20 N5         12.4990  -11.5300    0.5830 N.pl3     1    LIG29    0.0000
     21 N6         20.8230  -16.3120    0.1590 N.pl3     1    LIG29    0.0000
     22 C15        21.9440  -16.7070   -0.6330 C.3       1    LIG29    0.0000
     23 C16        22.2680  -15.5840   -1.6300 C.3       1    LIG29    0.0000
     24 O1         22.3950  -14.3470   -0.9290 O.3       1    LIG29    0.0000
     25 C17        21.2650  -13.9620   -0.1450 C.3       1    LIG29    0.0000
     26 C18        20.9340  -15.0750    0.8620 C.3       1    LIG29    0.0000
     27 C19        13.2550  -10.3310    0.5880 C.3       1    LIG29    0.0000
     28 C20        12.3090   -9.1280    0.6610 C.3       1    LIG29    0.0000
     29 H1         11.4712  -16.7404    0.5499 H         1    LIG29    0.0000
     30 H2         11.6319  -19.2413    0.5319 H         1    LIG29    0.0000
     31 H3         13.8005  -20.2647    0.4356 H         1    LIG29    0.0000
     32 H4         15.6826  -16.6194    0.3697 H         1    LIG29    0.0000
     33 H5         16.0893  -20.1880    0.3408 H         1    LIG29    0.0000
     34 H6         17.6578  -18.7062    2.4090 H         1    LIG29    0.0000
     35 H7         19.7829  -17.4073    2.3314 H         1    LIG29    0.0000
     36 H8         19.3053  -16.8774   -1.9321 H         1    LIG29    0.0000
     37 H9         17.1771  -18.1706   -1.8551 H         1    LIG29    0.0000
     38 H10        15.0865  -12.1702    0.4662 H         1    LIG29    0.0000
     39 H11        16.7377  -13.7336    0.3727 H         1    LIG29    0.0000
     40 H12        16.3357  -15.2489    1.2681 H         1    LIG29    0.0000
     41 H13        16.2635  -15.2200   -0.5357 H         1    LIG29    0.0000
     42 H14        11.4714  -11.4683    0.6174 H         1    LIG29    0.0000
     43 H15        21.6483  -17.6046   -1.1761 H         1    LIG29    0.0000
     44 H16        22.7844  -16.9496    0.0174 H         1    LIG29    0.0000
     45 H17        21.5088  -15.4824   -2.4055 H         1    LIG29    0.0000
     46 H18        23.2355  -15.7804   -2.0920 H         1    LIG29    0.0000
     47 H19        20.4319  -13.8448   -0.8381 H         1    LIG29    0.0000
     48 H20        21.4725  -13.0086    0.3409 H         1    LIG29    0.0000
     49 H21        21.7553  -15.1850    1.5702 H         1    LIG29    0.0000
     50 H22        20.0154  -14.8849    1.4171 H         1    LIG29    0.0000
     51 H23        13.7963  -10.3053   -0.3577 H         1    LIG29    0.0000
     52 H24        13.9651  -10.3576    1.4146 H         1    LIG29    0.0000
     53 H25        12.9311   -8.2330    0.6624 H         1    LIG29    0.0000
     54 H26        11.6668   -9.1737   -0.2186 H         1    LIG29    0.0000
     55 H27        11.7387   -9.2266    1.5847 H         1    LIG29    0.0000
@<TRIPOS>BOND
     1    1    2 ar
     2    1    6 ar
     3    2    3 ar
     4    3    4 ar
     5    4    5 ar
     6    4    7 2
     7    5    6 ar
     8    6   14 1
     9    7    8 1
    10    8    9 ar
    11    8   13 ar
    12    9   10 ar
    13   10   11 ar
    14   11   12 ar
    15   11   21 1
    16   12   13 ar
    17   14   15 ar
    18   14   18 ar
    19   15   16 ar
    20   16   17 ar
    21   16   20 1
    22   17   18 ar
    23   18   19 1
    24   20   27 1
    25   21   22 1
    26   21   26 1
    27   22   23 1
    28   23   24 1
    29   24   25 1
    30   25   26 1
    31   27   28 1
    32    1   29 1
    33    2   30 1
    34    3   31 1
    35    5   32 1
    36    7   33 1
    37    9   34 1
    38   10   35 1
    39   12   36 1
    40   13   37 1
    41   17   38 1
    42   19   39 1
    43   19   40 1
    44   19   41 1
    45   20   42 1
    46   22   43 1
    47   22   44 1
    48   23   45 1
    49   23   46 1
    50   25   47 1
    51   25   48 1
    52   26   49 1
    53   26   50 1
    54   27   51 1
    55   27   52 1
    56   28   53 1
    57   28   54 1
    58   28   55 1
@<TRIPOS>SUBSTRUCTURE
     1    LIG29    1   GROUP 1   LIG 1
@<TRIPOS>MOLECULE
50579844
   51    54    1     0     0
SMALL
USER_CHARGES


@<TRIPOS>ATOM
      1 C1          3.4670  -17.1450    0.6750 C.ar      1    LIG30    0.0000
      2 C2          3.6910  -18.5250    0.7710 C.ar      1    LIG30    0.0000
      3 N1          4.9530  -19.0110    0.7320 N.pl3     1    LIG30    0.0000
      4 C3          6.0260  -18.1990    0.5940 C.ar      1    LIG30    0.0000
      5 N2          5.8190  -16.8610    0.5010 N.pl3     1    LIG30    0.0000
      6 C4          4.5830  -16.2990    0.5380 C.ar      1    LIG30    0.0000
      7 N3          7.2530  -18.7710    0.5760 N.pl3     1    LIG30    0.0000
      8 C5          8.4330  -18.1150    0.4520 C.ar      1    LIG30    0.0000
      9 C6          8.6690  -17.1730   -0.5710 C.ar      1    LIG30    0.0000
     10 C7          9.9160  -16.5340   -0.6740 C.ar      1    LIG30    0.0000
     11 C8         10.9490  -16.8370    0.2340 C.ar      1    LIG30    0.0000
     12 C9         10.7180  -17.7900    1.2460 C.ar      1    LIG30    0.0000
     13 C10         9.4700  -18.4280    1.3490 C.ar      1    LIG30    0.0000
     14 C11         4.4100  -14.9000    0.4530 C.ar      1    LIG30    0.0000
     15 S1          2.8320  -14.1860    0.5150 S.2       1    LIG30    0.0000
     16 C12         3.6030  -12.6420    0.3740 C.ar      1    LIG30    0.0000
     17 N4          4.9370  -12.6830    0.2850 N.pl3     1    LIG30    0.0000
     18 C13         5.4150  -13.9340    0.3260 C.ar      1    LIG30    0.0000
     19 C14         6.8570  -14.1880    0.2350 C.3       1    LIG30    0.0000
     20 N5          2.9300  -11.4790    0.3510 N.pl3     1    LIG30    0.0000
     21 N6         12.1550  -16.2170    0.1330 N.pl3     1    LIG30    0.0000
     22 C15        13.3710  -16.9540   -0.0090 C.3       1    LIG30    0.0000
     23 C16        14.3180  -16.5780    1.1400 C.3       1    LIG30    0.0000
     24 O1         14.4510  -15.1580    1.2010 O.3       1    LIG30    0.0000
     25 C17        13.2320  -14.4290    1.3430 C.3       1    LIG30    0.0000
     26 C18        12.2730  -14.7950    0.1990 C.3       1    LIG30    0.0000
     27 C19         1.5170  -11.4240    0.4390 C.2       1    LIG30    0.0000
     28 H1          2.4562  -16.7382    0.7056 H         1    LIG30    0.0000
     29 H2          2.8477  -19.2074    0.8772 H         1    LIG30    0.0000
     30 H3          5.1008  -20.0274    0.8095 H         1    LIG30    0.0000
     31 H4          6.6367  -16.2433    0.3976 H         1    LIG30    0.0000
     32 H5          7.2936  -19.7964    0.6644 H         1    LIG30    0.0000
     33 H6          7.8796  -16.9395   -1.2855 H         1    LIG30    0.0000
     34 H7         10.0849  -15.7994   -1.4613 H         1    LIG30    0.0000
     35 H8         11.5114  -18.0336    1.9526 H         1    LIG30    0.0000
     36 H9          9.3046  -19.1706    2.1296 H         1    LIG30    0.0000
     37 H10         5.5306  -11.8461    0.1950 H         1    LIG30    0.0000
     38 H11         7.3464  -13.2182    0.1454 H         1    LIG30    0.0000
     39 H12         7.1477  -14.7057    1.1491 H         1    LIG30    0.0000
     40 H13         7.0166  -14.8057   -0.6488 H         1    LIG30    0.0000
     41 H14         3.4586  -10.5990    0.2667 H         1    LIG30    0.0000
     42 H15        13.8134  -16.6563   -0.9597 H         1    LIG30    0.0000
     43 H16        13.1503  -18.0209   -0.0407 H         1    LIG30    0.0000
     44 H17        15.3047  -17.0283    1.0320 H         1    LIG30    0.0000
     45 H18        13.8780  -16.8907    2.0870 H         1    LIG30    0.0000
     46 H19        13.4932  -13.3734    1.2676 H         1    LIG30    0.0000
     47 H20        12.8050  -14.6328    2.3250 H         1    LIG30    0.0000
     48 H21        11.2789  -14.4039    0.4154 H         1    LIG30    0.0000
     49 H22        12.6005  -14.4096   -0.7666 H         1    LIG30    0.0000
     50 H23         1.0066  -10.4611    0.4169 H         1    LIG30    0.0000
     51 H24         0.9403  -12.3446    0.5288 H         1    LIG30    0.0000
@<TRIPOS>BOND
     1    1    2 ar
     2    1    6 ar
     3    2    3 ar
     4    3    4 ar
     5    4    5 ar
     6    4    7 1
     7    5    6 ar
     8    6   14 1
     9    7    8 1
    10    8    9 ar
    11    8   13 ar
    12    9   10 ar
    13   10   11 ar
    14   11   12 ar
    15   11   21 1
    16   12   13 ar
    17   14   15 ar
    18   14   18 ar
    19   15   16 ar
    20   16   17 ar
    21   16   20 1
    22   17   18 ar
    23   18   19 1
    24   20   27 2
    25   21   22 1
    26   21   26 1
    27   22   23 1
    28   23   24 1
    29   24   25 1
    30   25   26 1
    31    1   28 1
    32    2   29 1
    33    3   30 1
    34    5   31 1
    35    7   32 1
    36    9   33 1
    37   10   34 1
    38   12   35 1
    39   13   36 1
    40   17   37 1
    41   19   38 1
    42   19   39 1
    43   19   40 1
    44   20   41 1
    45   22   42 1
    46   22   43 1
    47   23   44 1
    48   23   45 1
    49   25   46 1
    50   25   47 1
    51   26   48 1
    52   26   49 1
    53   27   50 1
    54   27   51 1
@<TRIPOS>SUBSTRUCTURE
     1    LIG30    1   GROUP 1   LIG 1
@<TRIPOS>MOLECULE
50077177
   64    67    1     0     0
SMALL
USER_CHARGES


@<TRIPOS>ATOM
      1 C1          8.5370  -11.4150    0.6620 C.ar      1    LIG31    0.0000
      2 C2          9.0310  -12.4710   -0.1300 C.ar      1    LIG31    0.0000
      3 C3         10.1380  -13.2250    0.2920 C.ar      1    LIG31    0.0000
      4 C4          9.1900  -11.1100    1.8780 C.ar      1    LIG31    0.0000
      5 C5         10.3130  -11.8500    2.3160 C.ar      1    LIG31    0.0000
      6 C6         10.7710  -12.9220    1.5070 C.ar      1    LIG31    0.0000
      7 N1         11.8280  -13.6690    1.9060 N.pl3     1    LIG31    0.0000
      8 C7         12.5050  -13.4590    3.0640 C.ar      1    LIG31    0.0000
      9 C8         12.0930  -12.4010    3.8970 C.ar      1    LIG31    0.0000
     10 C9         11.0020  -11.5870    3.5290 C.ar      1    LIG31    0.0000
     11 C10         7.4430  -10.6980    0.2140 C.2       1    LIG31    0.0000
     12 C11        10.6540  -10.5530    4.3730 C.2       1    LIG31    0.0000
     13 O1         10.5140  -10.7360    5.5720 O.co2     1    LIG31   -0.5000
     14 O2         10.5170   -9.3200    3.9190 O.co2     1    LIG31   -0.5000
     15 C12        13.5850  -14.3000    3.3940 C.2       1    LIG31    0.0000
     16 N2         13.9360  -15.2940    2.5450 N.am      1    LIG31    0.0000
     17 O3         14.2160  -14.1500    4.4660 O.2       1    LIG31    0.0000
     18 C13        14.9840  -16.2320    2.7820 C.3       1    LIG31    0.0000
     19 C14        15.9660  -16.1250    1.6810 C.2       1    LIG31    0.0000
     20 C15        14.3950  -17.6620    2.8410 C.3       1    LIG31    0.0000
     21 C16        13.4270  -17.8310    3.9460 C.ar      1    LIG31    0.0000
     22 C17        13.8560  -17.7430    5.2860 C.ar      1    LIG31    0.0000
     23 C18        12.9380  -17.8930    6.3400 C.ar      1    LIG31    0.0000
     24 C19        11.5820  -18.1340    6.0620 C.ar      1    LIG31    0.0000
     25 C20        11.1460  -18.2270    4.7290 C.ar      1    LIG31    0.0000
     26 C21        12.0650  -18.0770    3.6770 C.ar      1    LIG31    0.0000
     27 C22         6.4950  -10.2000    1.0240 C.2       1    LIG31    0.0000
     28 O4         10.7030  -18.2760    7.0800 O.2       1    LIG31    0.0000
     29 C23         5.3880   -9.5000    0.5780 C.ar      1    LIG31    0.0000
     30 C24         5.4350   -8.6510   -0.5500 C.ar      1    LIG31    0.0000
     31 C25         4.2920   -7.9470   -0.9660 C.ar      1    LIG31    0.0000
     32 C26         3.0840   -8.0780   -0.2560 C.ar      1    LIG31    0.0000
     33 C27         3.0290   -8.9140    0.8740 C.ar      1    LIG31    0.0000
     34 C28         4.1740   -9.6160    1.2880 C.ar      1    LIG31    0.0000
     35 Cl1         1.7070   -7.2330   -0.7560 Cl        1    LIG31    0.0000
     36 N3         17.2760  -15.7720    1.8600 N.am      1    LIG31    1.0000
     37 O5         15.5550  -16.3720    0.5220 O.2       1    LIG31    0.0000
     38 C29        17.7970  -15.4630    3.1530 C.3       1    LIG31    0.0000
     39 C30        18.1420  -15.7020    0.7260 C.3       1    LIG31    0.0000
     40 H1          8.5491  -12.7047   -1.0793 H         1    LIG31    0.0000
     41 H2         10.5055  -14.0456   -0.3243 H         1    LIG31    0.0000
     42 H3          8.8205  -10.2877    2.4907 H         1    LIG31    0.0000
     43 H4         12.1357  -14.4401    1.2964 H         1    LIG31    0.0000
     44 H5         12.6205  -12.2102    4.8316 H         1    LIG31    0.0000
     45 H6          7.3445  -10.5273   -0.8580 H         1    LIG31    0.0000
     46 H7         13.4084  -15.3791    1.6645 H         1    LIG31    0.0000
     47 H8         15.4755  -16.0208    3.7317 H         1    LIG31    0.0000
     48 H9         15.1959  -18.3875    2.9835 H         1    LIG31    0.0000
     49 H10        13.8361  -17.8322    1.9208 H         1    LIG31    0.0000
     50 H11        14.9072  -17.5573    5.5064 H         1    LIG31    0.0000
     51 H12        13.2782  -17.8223    7.3731 H         1    LIG31    0.0000
     52 H13        10.0947  -18.4155    4.5114 H         1    LIG31    0.0000
     53 H14        11.7224  -18.1514    2.6449 H         1    LIG31    0.0000
     54 H15         6.6040  -10.3566    2.0972 H         1    LIG31    0.0000
     55 H16         6.3675   -8.5407   -1.1035 H         1    LIG31    0.0000
     56 H17         4.3412   -7.2981   -1.8404 H         1    LIG31    0.0000
     57 H18         2.0968   -9.0175    1.4294 H         1    LIG31    0.0000
     58 H19         4.1237  -10.2575    2.1678 H         1    LIG31    0.0000
     59 H20        18.8507  -15.2171    3.0216 H         1    LIG31    0.0000
     60 H21        17.2271  -14.6146    3.5318 H         1    LIG31    0.0000
     61 H22        17.6621  -16.3504    3.7714 H         1    LIG31    0.0000
     62 H23        19.1249  -15.4068    1.0933 H         1    LIG31    0.0000
     63 H24        18.1589  -16.6947    0.2762 H         1    LIG31    0.0000
     64 H25        17.7218  -14.9577    0.0496 H         1    LIG31    0.0000
@<TRIPOS>BOND
     1    1    2 ar
     2    1    4 ar
     3    1   11 1
     4    2    3 ar
     5    3    6 ar
     6    4    5 ar
     7    5    6 ar
     8    5   10 ar
     9    6    7 ar
    10    7    8 ar
    11    8    9 ar
    12    8   15 1
    13    9   10 ar
    14   10   12 1
    15   11   27 2
    16   12   13 am
    17   12   14 am
    18   15   16 am
    19   15   17 2
    20   16   18 1
    21   18   19 1
    22   18   20 1
    23   19   36 2
    24   19   37 2
    25   20   21 1
    26   21   22 ar
    27   21   26 ar
    28   22   23 ar
    29   23   24 ar
    30   24   25 ar
    31   24   28 2
    32   25   26 ar
    33   27   29 1
    34   29   30 ar
    35   29   34 ar
    36   30   31 ar
    37   31   32 ar
    38   32   33 ar
    39   32   35 2
    40   33   34 ar
    41   36   38 1
    42   36   39 1
    43    2   40 1
    44    3   41 1
    45    4   42 1
    46    7   43 1
    47    9   44 1
    48   11   45 1
    49   16   46 1
    50   18   47 1
    51   20   48 1
    52   20   49 1
    53   22   50 1
    54   23   51 1
    55   25   52 1
    56   26   53 1
    57   27   54 1
    58   30   55 1
    59   31   56 1
    60   33   57 1
    61   34   58 1
    62   38   59 1
    63   38   60 1
    64   38   61 1
    65   39   62 1
    66   39   63 1
    67   39   64 1
@<TRIPOS>SUBSTRUCTURE
     1    LIG31    1   GROUP 1   LIG 1
@<TRIPOS>MOLECULE
50579850
   39    41    1     0     0
SMALL
USER_CHARGES


@<TRIPOS>ATOM
      1 C1         -4.6690   -4.9250    0.6070 C.ar      1    LIG32    0.0000
      2 C2         -4.5480   -6.3220    0.6240 C.ar      1    LIG32    0.0000
      3 N1         -3.3260   -6.9000    0.5410 N.pl3     1    LIG32    0.0000
      4 C3         -2.1970   -6.1610    0.4390 C.ar      1    LIG32    0.0000
      5 N2         -2.3070   -4.8100    0.4220 N.pl3     1    LIG32    0.0000
      6 C4         -3.4940   -4.1590    0.5020 C.ar      1    LIG32    0.0000
      7 N3         -1.0030   -6.7910    0.3610 N.pl3     1    LIG32    0.0000
      8 C5          0.1750   -6.1370    0.2530 C.ar      1    LIG32    0.0000
      9 C6          0.6690   -5.7720   -1.0140 C.ar      1    LIG32    0.0000
     10 C7          1.8870   -5.0790   -1.1240 C.ar      1    LIG32    0.0000
     11 C8          2.6180   -4.7510    0.0320 C.ar      1    LIG32    0.0000
     12 C9          2.1290   -5.1200    1.2990 C.ar      1    LIG32    0.0000
     13 C10         0.9110   -5.8140    1.4090 C.ar      1    LIG32    0.0000
     14 C11        -3.5430   -2.7500    0.4820 C.ar      1    LIG32    0.0000
     15 S1         -5.0480   -1.8980    0.5890 S.2       1    LIG32    0.0000
     16 C12        -4.1390   -0.4290    0.4920 C.ar      1    LIG32    0.0000
     17 N4         -2.8140   -0.5880    0.3880 N.pl3     1    LIG32    0.0000
     18 C13        -2.4520   -1.8780    0.3800 C.ar      1    LIG32    0.0000
     19 C14        -1.0390   -2.2610    0.2730 C.3       1    LIG32    0.0000
     20 C15        -4.7780    0.8850    0.5230 C.3       1    LIG32    0.0000
     21 N5          3.7800   -4.0870   -0.0730 N.pl3     1    LIG32    0.0000
     22 H1         -5.6460   -4.4463    0.6733 H         1    LIG32    0.0000
     23 H2         -5.4395   -6.9441    0.7042 H         1    LIG32    0.0000
     24 H3         -3.2542   -7.9274    0.5559 H         1    LIG32    0.0000
     25 H4         -1.4461   -4.2499    0.3445 H         1    LIG32    0.0000
     26 H5         -0.9906   -7.8206    0.3851 H         1    LIG32    0.0000
     27 H6          0.1057   -6.0274   -1.9115 H         1    LIG32    0.0000
     28 H7          2.2654   -4.7955   -2.1061 H         1    LIG32    0.0000
     29 H8          2.6949   -4.8676    2.1958 H         1    LIG32    0.0000
     30 H9          0.5360   -6.1024    2.3910 H         1    LIG32    0.0000
     31 H10        -2.1471    0.1941    0.3215 H         1    LIG32    0.0000
     32 H11        -0.4624   -1.3380    0.2114 H         1    LIG32    0.0000
     33 H12        -0.7950   -2.8323    1.1686 H         1    LIG32    0.0000
     34 H13        -0.9393   -2.8621   -0.6308 H         1    LIG32    0.0000
     35 H14        -3.9837    1.6275    0.4468 H         1    LIG32    0.0000
     36 H15        -5.4571    0.9293   -0.3284 H         1    LIG32    0.0000
     37 H16        -5.3112    0.9578    1.4709 H         1    LIG32    0.0000
     38 H17         4.3145   -3.8473    0.7742 H         1    LIG32    0.0000
     39 H18         4.1370   -3.8173   -1.0007 H         1    LIG32    0.0000
@<TRIPOS>BOND
     1    1    2 ar
     2    1    6 ar
     3    2    3 ar
     4    3    4 ar
     5    4    5 ar
     6    4    7 2
     7    5    6 ar
     8    6   14 1
     9    7    8 1
    10    8    9 ar
    11    8   13 ar
    12    9   10 ar
    13   10   11 ar
    14   11   12 ar
    15   11   21 2
    16   12   13 ar
    17   14   15 ar
    18   14   18 ar
    19   15   16 ar
    20   16   17 ar
    21   16   20 1
    22   17   18 ar
    23   18   19 1
    24    1   22 1
    25    2   23 1
    26    3   24 1
    27    5   25 1
    28    7   26 1
    29    9   27 1
    30   10   28 1
    31   12   29 1
    32   13   30 1
    33   17   31 1
    34   19   32 1
    35   19   33 1
    36   19   34 1
    37   20   35 1
    38   20   36 1
    39   20   37 1
    40   21   38 1
    41   21   39 1
@<TRIPOS>SUBSTRUCTURE
     1    LIG32    1   GROUP 1   LIG 1
@<TRIPOS>MOLECULE
51041254
   46    49    1     0     0
SMALL
USER_CHARGES


@<TRIPOS>ATOM
      1 C1          0.4340    2.5550    0.5140 C.ar      1    LIG33    0.0000
      2 C2          1.5840    1.8910    0.7570 C.ar      1    LIG33    0.0000
      3 C3          2.5380    2.4450    1.5200 C.ar      1    LIG33    0.0000
      4 C4          0.2100    3.8280    1.0290 C.ar      1    LIG33    0.0000
      5 C5          1.2340    4.3940    1.8270 C.ar      1    LIG33    0.0000
      6 C6          1.0980    5.6810    2.3990 C.ar      1    LIG33    0.0000
      7 C7         -1.1160    5.8460    1.3620 C.ar      1    LIG33    0.0000
      8 C8         -0.9690    4.5690    0.8000 C.ar      1    LIG33    0.0000
      9 C9         -0.0960    6.3970    2.1520 C.ar      1    LIG33    0.0000
     10 O1         -0.2820    7.6350    2.6670 O.2       1    LIG33    0.0000
     11 O2         -1.9780    4.0790    0.0440 O.2       1    LIG33    0.0000
     12 O3         -0.3980    1.9840   -0.1760 O.2       1    LIG33    0.0000
     13 O4          2.3690    3.6630    2.0480 O.2       1    LIG33    0.0000
     14 C10         3.7260    1.7990    1.7800 C.ar      1    LIG33    0.0000
     15 C11         6.1190    1.6170    1.3200 C.ar      1    LIG33    0.0000
     16 C12         4.8770    2.2310    1.0890 C.ar      1    LIG33    0.0000
     17 C13         3.8320    0.7470    2.7230 C.ar      1    LIG33    0.0000
     18 C14         5.0830    0.1370    2.9470 C.ar      1    LIG33    0.0000
     19 C15         6.2210    0.5690    2.2470 C.ar      1    LIG33    0.0000
     20 Cl1         2.5020    0.1930    3.6200 Cl        1    LIG33    0.0000
     21 C16         2.1660    6.2940    3.2420 C.3       1    LIG33    0.0000
     22 C17         4.3970    7.4380    3.3810 C.3       1    LIG33    0.0000
     23 C18         3.4170    6.7170    2.4390 C.3       1    LIG33    0.0000
     24 C19         2.5870    5.4220    4.4430 C.3       1    LIG33    0.0000
     25 C20         3.5960    6.1930    5.3080 C.3       1    LIG33    0.0000
     26 N1          4.7810    6.5610    4.5070 N.pl3     1    LIG33    0.0000
     27 C21         5.7650    7.2490    5.3620 C.3       1    LIG33    0.0000
     28 O5          4.0940    5.6130    1.8500 O.3       1    LIG33    0.0000
     29 H1          1.7381    0.8996    0.3310 H         1    LIG33    0.0000
     30 H2         -2.0290    6.4140    1.1836 H         1    LIG33    0.0000
     31 H3          7.0031    1.9546    0.7793 H         1    LIG33    0.0000
     32 H4          4.8022    3.0472    0.3705 H         1    LIG33    0.0000
     33 H5          5.1675   -0.6756    3.6686 H         1    LIG33    0.0000
     34 H6          7.1840    0.0899    2.4239 H         1    LIG33    0.0000
     35 H7          1.6954    7.1954    3.6347 H         1    LIG33    0.0000
     36 H8          3.9448    8.3455    3.7810 H         1    LIG33    0.0000
     37 H9          5.3073    7.6717    2.8289 H         1    LIG33    0.0000
     38 H10         3.0769    7.3686    1.6341 H         1    LIG33    0.0000
     39 H11         3.0460    4.5010    4.0836 H         1    LIG33    0.0000
     40 H12         1.7089    5.1811    5.0423 H         1    LIG33    0.0000
     41 H13         3.9151    5.5898    6.1580 H         1    LIG33    0.0000
     42 H14         3.1341    7.1179    5.6533 H         1    LIG33    0.0000
     43 H15         6.0153    6.5655    6.1733 H         1    LIG33    0.0000
     44 H16         6.6303    7.4706    4.7373 H         1    LIG33    0.0000
     45 H17         5.2876    8.1572    5.7300 H         1    LIG33    0.0000
     46 H18         3.4215    5.1460    1.2251 H         1    LIG33    0.0000
@<TRIPOS>BOND
     1    1    2 ar
     2    1    4 ar
     3    1   12 2
     4    2    3 ar
     5    3   13 ar
     6    3   14 1
     7    4    5 ar
     8    4    8 ar
     9    5    6 ar
    10    5   13 ar
    11    6    9 ar
    12    6   21 1
    13    7    8 ar
    14    7    9 ar
    15    8   11 2
    16    9   10 2
    17   14   16 ar
    18   14   17 ar
    19   15   16 ar
    20   15   19 ar
    21   17   18 ar
    22   17   20 2
    23   18   19 ar
    24   21   23 1
    25   21   24 1
    26   22   23 1
    27   22   26 1
    28   23   28 1
    29   24   25 1
    30   25   26 1
    31   26   27 1
    32    2   29 1
    33    7   30 1
    34   15   31 1
    35   16   32 1
    36   18   33 1
    37   19   34 1
    38   21   35 1
    39   22   36 1
    40   22   37 1
    41   23   38 1
    42   24   39 1
    43   24   40 1
    44   25   41 1
    45   25   42 1
    46   27   43 1
    47   27   44 1
    48   27   45 1
    49   28   46 1
@<TRIPOS>SUBSTRUCTURE
     1    LIG33    1   GROUP 1   LIG 1
@<TRIPOS>MOLECULE
51087231
   55    58    1     0     0
SMALL
USER_CHARGES


@<TRIPOS>ATOM
      1 C1         14.5730  -10.5240    0.4010 C.ar      1    LIG34    0.0000
      2 C2         14.6830  -11.7360   -0.3190 C.ar      1    LIG34    0.0000
      3 C3         15.1560  -12.9060    0.2940 C.ar      1    LIG34    0.0000
      4 C4         14.9480  -10.5300    1.7670 C.ar      1    LIG34    0.0000
      5 C5         15.4140  -11.7000    2.4120 C.ar      1    LIG34    0.0000
      6 C6         15.5240  -12.8890    1.6470 C.ar      1    LIG34    0.0000
      7 N1         15.9940  -14.0230    2.2190 N.pl3     1    LIG34    0.0000
      8 C7         16.3790  -14.1070    3.5180 C.ar      1    LIG34    0.0000
      9 C8         16.2820  -12.9550    4.3210 C.ar      1    LIG34    0.0000
     10 C9         15.7950  -11.7470    3.7790 C.ar      1    LIG34    0.0000
     11 C10        14.1010   -9.3320   -0.2310 C.ar      1    LIG34    0.0000
     12 C11        15.7090  -10.6580    4.6230 C.2       1    LIG34    0.0000
     13 O1         14.6920   -9.9860    4.6950 O.co2     1    LIG34   -0.5000
     14 O2         16.7040  -10.3490    5.4350 O.co2     1    LIG34   -0.5000
     15 C12        16.8620  -15.3330    4.0160 C.2       1    LIG34    0.0000
     16 N2         17.0340  -16.3740    3.1680 N.am      1    LIG34    0.0000
     17 O3         17.1380  -15.4770    5.2290 O.2       1    LIG34    0.0000
     18 C13        17.5180  -17.6580    3.5600 C.3       1    LIG34    0.0000
     19 C14        18.8910  -17.5870    4.0020 C.2       1    LIG34    0.0000
     20 C15        17.4200  -18.6310    2.3630 C.3       1    LIG34    0.0000
     21 C16        16.0320  -18.8220    1.8920 C.ar      1    LIG34    0.0000
     22 O4         19.8130  -17.0880    3.1790 O.2       1    LIG34    0.0000
     23 O5         19.1860  -17.9940    5.1170 O.co2     1    LIG34    0.0000
     24 C17        21.1640  -16.9670    3.6250 C.2       1    LIG34    0.0000
     25 C18        15.6400  -18.3800    0.6120 C.ar      1    LIG34    0.0000
     26 C19        14.3190  -18.5610    0.1690 C.ar      1    LIG34    0.0000
     27 C20        13.3780  -19.1900    1.0020 C.ar      1    LIG34    0.0000
     28 C21        13.7600  -19.6360    2.2780 C.ar      1    LIG34    0.0000
     29 C22        15.0820  -19.4530    2.7200 C.ar      1    LIG34    0.0000
     30 O6         12.1090  -19.3630    0.5700 O.2       1    LIG34    0.0000
     31 C23        14.4030   -9.0530   -1.5860 C.ar      1    LIG34    0.0000
     32 C24        13.9430   -7.8790   -2.2110 C.ar      1    LIG34    0.0000
     33 C25        13.1690   -6.9580   -1.4850 C.ar      1    LIG34    0.0000
     34 C26        12.8540   -7.2120   -0.1390 C.ar      1    LIG34    0.0000
     35 C27        13.3170   -8.3890    0.4780 C.ar      1    LIG34    0.0000
     36 Cl1        11.9190   -6.1050    0.7340 Cl        1    LIG34    0.0000
     37 Cl2        14.3240   -7.5730   -3.8310 Cl        1    LIG34    0.0000
     38 H1         14.3949  -11.7618   -1.3699 H         1    LIG34    0.0000
     39 H2         15.2374  -13.8281   -0.2814 H         1    LIG34    0.0000
     40 H3         14.8753   -9.6049    2.3388 H         1    LIG34    0.0000
     41 H4         16.0632  -14.8691    1.6357 H         1    LIG34    0.0000
     42 H5         16.5848  -12.9965    5.3673 H         1    LIG34    0.0000
     43 H6         16.8004  -16.2300    2.1752 H         1    LIG34    0.0000
     44 H7         16.9064  -18.0143    4.3889 H         1    LIG34    0.0000
     45 H8         17.8113  -19.6072    2.6494 H         1    LIG34    0.0000
     46 H9         17.9621  -18.1868    1.5282 H         1    LIG34    0.0000
     47 H10        21.9238  -16.5599    2.9579 H         1    LIG34    0.0000
     48 H11        21.4356  -17.2818    4.6326 H         1    LIG34    0.0000
     49 H12        16.3671  -17.8943   -0.0388 H         1    LIG34    0.0000
     50 H13        14.0239  -18.2135   -0.8211 H         1    LIG34    0.0000
     51 H14        13.0315  -20.1240    2.9255 H         1    LIG34    0.0000
     52 H15        15.3744  -19.8017    3.7104 H         1    LIG34    0.0000
     53 H16        15.0037   -9.7616   -2.1563 H         1    LIG34    0.0000
     54 H17        12.8129   -6.0468   -1.9656 H         1    LIG34    0.0000
     55 H18        13.0675   -8.5788    1.5219 H         1    LIG34    0.0000
@<TRIPOS>BOND
     1    1    2 ar
     2    1    4 ar
     3    1   11 1
     4    2    3 ar
     5    3    6 ar
     6    4    5 ar
     7    5    6 ar
     8    5   10 ar
     9    6    7 ar
    10    7    8 ar
    11    8    9 ar
    12    8   15 1
    13    9   10 ar
    14   10   12 1
    15   11   31 ar
    16   11   35 ar
    17   12   13 am
    18   12   14 am
    19   15   16 am
    20   15   17 2
    21   16   18 1
    22   18   19 1
    23   18   20 1
    24   19   22 1
    25   19   23 2
    26   20   21 1
    27   21   25 ar
    28   21   29 ar
    29   22   24 2
    30   25   26 ar
    31   26   27 ar
    32   27   28 ar
    33   27   30 2
    34   28   29 ar
    35   31   32 ar
    36   32   33 ar
    37   32   37 2
    38   33   34 ar
    39   34   35 ar
    40   34   36 2
    41    2   38 1
    42    3   39 1
    43    4   40 1
    44    7   41 1
    45    9   42 1
    46   16   43 1
    47   18   44 1
    48   20   45 1
    49   20   46 1
    50   24   47 1
    51   24   48 1
    52   25   49 1
    53   26   50 1
    54   28   51 1
    55   29   52 1
    56   31   53 1
    57   33   54 1
    58   35   55 1
@<TRIPOS>SUBSTRUCTURE
     1    LIG34    1   GROUP 1   LIG 1
@<TRIPOS>MOLECULE
50579849
   46    48    1     0     0
SMALL
USER_CHARGES


@<TRIPOS>ATOM
      1 C1          3.4330   -3.9210    0.4180 C.ar      1    LIG35    0.0000
      2 C2          3.6020   -5.2870    0.1570 C.ar      1    LIG35    0.0000
      3 N1          4.8460   -5.8070    0.0420 N.pl3     1    LIG35    0.0000
      4 C3          5.9530   -5.0420    0.1850 C.ar      1    LIG35    0.0000
      5 N2          5.7970   -3.7200    0.4500 N.pl3     1    LIG35    0.0000
      6 C4          4.5830   -3.1250    0.5680 C.ar      1    LIG35    0.0000
      7 N3          7.1640   -5.6260    0.0290 N.pl3     1    LIG35    0.0000
      8 C5          8.3530   -4.9830    0.1230 C.ar      1    LIG35    0.0000
      9 C6          9.2460   -5.0290   -0.9630 C.ar      1    LIG35    0.0000
     10 C7         10.4950   -4.3880   -0.8980 C.ar      1    LIG35    0.0000
     11 C8         10.8700   -3.7120    0.2860 C.ar      1    LIG35    0.0000
     12 C9          9.9740   -3.6500    1.3770 C.ar      1    LIG35    0.0000
     13 C10         8.7320   -4.3030    1.2960 C.ar      1    LIG35    0.0000
     14 C11         4.4710   -1.7380    0.8080 C.ar      1    LIG35    0.0000
     15 S1          2.9310   -0.9420    0.8240 S.2       1    LIG35    0.0000
     16 C12         3.7810    0.5440    1.0780 C.ar      1    LIG35    0.0000
     17 N4          5.1110    0.4240    1.1730 N.pl3     1    LIG35    0.0000
     18 C13         5.5230   -0.8430    1.0320 C.ar      1    LIG35    0.0000
     19 C14         6.9460   -1.1850    1.1320 C.3       1    LIG35    0.0000
     20 C15         3.0960    1.8330    1.1760 C.3       1    LIG35    0.0000
     21 O1         12.1070   -3.1580    0.3790 O.2       1    LIG35    0.0000
     22 C16        13.0750   -3.8160    1.1990 C.2       1    LIG35    0.0000
     23 O2         10.2720   -3.0020    2.5380 O.2       1    LIG35    0.0000
     24 C17        10.5690   -1.6030    2.5110 C.2       1    LIG35    0.0000
     25 O3         11.3000   -4.4970   -1.9940 O.2       1    LIG35    0.0000
     26 C18        11.9280   -3.3460   -2.5670 C.2       1    LIG35    0.0000
     27 H1          2.4369   -3.4866    0.5026 H         1    LIG35    0.0000
     28 H2          2.7302   -5.9319    0.0464 H         1    LIG35    0.0000
     29 H3          4.9531   -6.8114   -0.1597 H         1    LIG35    0.0000
     30 H4          6.6405   -3.1406    0.5672 H         1    LIG35    0.0000
     31 H5          7.1832   -6.6351   -0.1766 H         1    LIG35    0.0000
     32 H6          8.9654   -5.5692   -1.8672 H         1    LIG35    0.0000
     33 H7          8.0553   -4.2827    2.1502 H         1    LIG35    0.0000
     34 H8          5.7469    1.2176    1.3364 H         1    LIG35    0.0000
     35 H9          7.4857   -0.2546    1.3085 H         1    LIG35    0.0000
     36 H10         7.0493   -1.8781    1.9669 H         1    LIG35    0.0000
     37 H11         7.2304   -1.6452    0.1857 H         1    LIG35    0.0000
     38 H12         3.8636    2.5906    1.3342 H         1    LIG35    0.0000
     39 H13         2.5652    1.9841    0.2360 H         1    LIG35    0.0000
     40 H14         2.4116    1.7667    2.0218 H         1    LIG35    0.0000
     41 H15        14.0780   -3.4010    1.2978 H         1    LIG35    0.0000
     42 H16        12.8103   -4.7329    1.7256 H         1    LIG35    0.0000
     43 H17        10.8082   -1.0787    3.4362 H         1    LIG35    0.0000
     44 H18        10.5561   -1.0613    1.5652 H         1    LIG35    0.0000
     45 H19        12.5678   -3.4536   -3.4429 H         1    LIG35    0.0000
     46 H20        11.7666   -2.3616   -2.1276 H         1    LIG35    0.0000
@<TRIPOS>BOND
     1    1    2 ar
     2    1    6 ar
     3    2    3 ar
     4    3    4 ar
     5    4    5 ar
     6    4    7 1
     7    5    6 ar
     8    6   14 1
     9    7    8 1
    10    8    9 ar
    11    8   13 ar
    12    9   10 ar
    13   10   11 ar
    14   10   25 1
    15   11   12 ar
    16   11   21 1
    17   12   13 ar
    18   12   23 1
    19   14   15 ar
    20   14   18 ar
    21   15   16 ar
    22   16   17 ar
    23   16   20 1
    24   17   18 ar
    25   18   19 1
    26   21   22 2
    27   23   24 2
    28   25   26 2
    29    1   27 1
    30    2   28 1
    31    3   29 1
    32    5   30 1
    33    7   31 1
    34    9   32 1
    35   13   33 1
    36   17   34 1
    37   19   35 1
    38   19   36 1
    39   19   37 1
    40   20   38 1
    41   20   39 1
    42   20   40 1
    43   22   41 1
    44   22   42 1
    45   24   43 1
    46   24   44 1
    47   26   45 1
    48   26   46 1
@<TRIPOS>SUBSTRUCTURE
     1    LIG35    1   GROUP 1   LIG 1
@<TRIPOS>MOLECULE
184852
   55    57    1     0     0
SMALL
USER_CHARGES


@<TRIPOS>ATOM
      1 C1         -1.2450    1.0100    0.8160 C.ar      1    LIG36    0.0000
      2 N1         -0.1270    0.2400    0.8360 N.pl3     1    LIG36    0.0000
      3 N2         -1.1340    2.3560    0.6500 N.pl3     1    LIG36    0.0000
      4 C2          1.2210    2.1930    0.5180 C.ar      1    LIG36    0.0000
      5 C3          1.0850    0.8240    0.6900 C.ar      1    LIG36    0.0000
      6 C4          3.1710    1.3300    0.4970 C.ar      1    LIG36    0.0000
      7 N3          2.5200    2.5050    0.3980 N.pl3     1    LIG36    0.0000
      8 N4          2.3180    0.2980    0.6730 N.pl3     1    LIG36    0.0000
      9 C5          0.0640    2.9810    0.4960 C.ar      1    LIG36    0.0000
     10 N5          0.1450    4.3150    0.3200 N.pl3     1    LIG36    0.0000
     11 N6         -2.4440    0.4170    0.9700 N.pl3     1    LIG36    0.0000
     12 C6         -1.0000    5.1560    0.2750 C.3       1    LIG36    0.0000
     13 C7         -0.5990    6.5510    0.0150 C.ar      1    LIG36    0.0000
     14 C8          0.1660    9.2170   -0.5080 C.ar      1    LIG36    0.0000
     15 C9          0.4100    8.2160   -1.4630 C.ar      1    LIG36    0.0000
     16 C10         0.0270    6.8890   -1.2020 C.ar      1    LIG36    0.0000
     17 C11        -0.8420    7.5630    0.9670 C.ar      1    LIG36    0.0000
     18 C12        -0.4600    8.8900    0.7070 C.ar      1    LIG36    0.0000
     19 C13        -3.6820    1.1200    0.9870 C.3       1    LIG36    0.0000
     20 C14        -4.0320    1.6610   -0.4140 C.3       1    LIG36    0.0000
     21 O1         -5.2560    2.3830   -0.3750 O.3       1    LIG36    0.0000
     22 C15         3.3750   -1.6010   -0.4420 C.3       1    LIG36    0.0000
     23 C16         2.6530   -1.0830    0.8130 C.3       1    LIG36    0.0000
     24 C17         3.5260   -1.3120    2.0580 C.3       1    LIG36    0.0000
     25 C18        -4.7920    0.1670    1.4660 C.3       1    LIG36    0.0000
     26 C19        -4.5330   -0.3320    2.8950 C.3       1    LIG36    0.0000
     27 H1         -0.2007   -0.7797    0.9612 H         1    LIG36    0.0000
     28 H2         -1.9926    2.9249    0.6406 H         1    LIG36    0.0000
     29 H3          4.2545    1.2249    0.4418 H         1    LIG36    0.0000
     30 H4          2.9303    3.4396    0.2602 H         1    LIG36    0.0000
     31 H5          1.0758    4.7429    0.2136 H         1    LIG36    0.0000
     32 H6         -2.4670   -0.6066    1.0822 H         1    LIG36    0.0000
     33 H7         -1.4873    5.1017    1.2485 H         1    LIG36    0.0000
     34 H8         -1.6731    4.7988   -0.5044 H         1    LIG36    0.0000
     35 H9          0.4620   10.2466   -0.7092 H         1    LIG36    0.0000
     36 H10         0.8959    8.4682   -2.4056 H         1    LIG36    0.0000
     37 H11         0.2155    6.1154   -1.9463 H         1    LIG36    0.0000
     38 H12        -1.3290    7.3142    1.9099 H         1    LIG36    0.0000
     39 H13        -0.6494    9.6664    1.4483 H         1    LIG36    0.0000
     40 H14        -3.5946    1.9686    1.6655 H         1    LIG36    0.0000
     41 H15        -4.1155    0.8679   -1.1571 H         1    LIG36    0.0000
     42 H16        -3.2713    2.3825   -0.7121 H         1    LIG36    0.0000
     43 H17        -5.4383    2.7185   -1.3316 H         1    LIG36    0.0000
     44 H18         3.5999   -2.6534   -0.2687 H         1    LIG36    0.0000
     45 H19         2.6926   -1.4653   -1.2811 H         1    LIG36    0.0000
     46 H20         4.2813   -1.0064   -0.5565 H         1    LIG36    0.0000
     47 H21         1.7240   -1.6401    0.9340 H         1    LIG36    0.0000
     48 H22         3.7428   -2.3793    2.1033 H         1    LIG36    0.0000
     49 H23         4.4315   -0.7198    1.9256 H         1    LIG36    0.0000
     50 H24         2.9465   -0.9793    2.9192 H         1    LIG36    0.0000
     51 H25        -4.8182   -0.6955    0.8001 H         1    LIG36    0.0000
     52 H26        -5.7374    0.7094    1.4592 H         1    LIG36    0.0000
     53 H27        -5.3578   -0.9954    3.1553 H         1    LIG36    0.0000
     54 H28        -3.5786   -0.8584    2.8807 H         1    LIG36    0.0000
     55 H29        -4.5013    0.5471    3.5387 H         1    LIG36    0.0000
@<TRIPOS>BOND
     1    1    2 ar
     2    1    3 ar
     3    1   11 2
     4    2    5 ar
     5    3    9 ar
     6    4    5 ar
     7    4    7 ar
     8    4    9 ar
     9    5    8 ar
    10    6    7 ar
    11    6    8 ar
    12    8   23 1
    13    9   10 2
    14   10   12 1
    15   11   19 1
    16   12   13 1
    17   13   16 ar
    18   13   17 ar
    19   14   15 ar
    20   14   18 ar
    21   15   16 ar
    22   17   18 ar
    23   19   20 1
    24   19   25 1
    25   20   21 1
    26   22   23 1
    27   23   24 1
    28   25   26 1
    29    2   27 1
    30    3   28 1
    31    6   29 1
    32    7   30 1
    33   10   31 1
    34   11   32 1
    35   12   33 1
    36   12   34 1
    37   14   35 1
    38   15   36 1
    39   16   37 1
    40   17   38 1
    41   18   39 1
    42   19   40 1
    43   20   41 1
    44   20   42 1
    45   21   43 1
    46   22   44 1
    47   22   45 1
    48   22   46 1
    49   23   47 1
    50   24   48 1
    51   24   49 1
    52   24   50 1
    53   25   51 1
    54   25   52 1
    55   26   53 1
    56   26   54 1
    57   26   55 1
@<TRIPOS>SUBSTRUCTURE
     1    LIG36    1   GROUP 1   LIG 1
@<TRIPOS>MOLECULE
50579852
   44    46    1     0     0
SMALL
USER_CHARGES


@<TRIPOS>ATOM
      1 C1         -0.3650    4.7800    0.5900 C.ar      1    LIG37    0.0000
      2 C2         -2.5810    4.7640    0.3790 C.ar      1    LIG37    0.0000
      3 C3         -2.3100    3.3910    0.4240 C.ar      1    LIG37    0.0000
      4 N1         -1.4770    5.5170    0.4740 N.pl3     1    LIG37    0.0000
      5 C4         -3.9040    5.3870    0.2420 C.3       1    LIG37    0.0000
      6 S1         -0.6150    3.0680    0.5830 S.2       1    LIG37    0.0000
      7 C5         -3.2550    2.3460    0.3560 C.ar      1    LIG37    0.0000
      8 C6         -2.8540    0.9980    0.4020 C.ar      1    LIG37    0.0000
      9 C7         -3.8470    0.0110    0.3320 C.ar      1    LIG37    0.0000
     10 C8         -5.5340    1.6600    0.1840 C.ar      1    LIG37    0.0000
     11 N2         -4.5780    2.6190    0.2490 N.pl3     1    LIG37    0.0000
     12 N3         -5.1510    0.3630    0.2250 N.pl3     1    LIG37    0.0000
     13 N4         -6.8490    1.9590    0.0840 N.pl3     1    LIG37    0.0000
     14 C9         -7.3160    3.2270    0.0550 C.ar      1    LIG37    0.0000
     15 C10        -7.8780    5.2450   -1.1920 C.ar      1    LIG37    0.0000
     16 C11        -7.4290    3.9140   -1.1690 C.ar      1    LIG37    0.0000
     17 C12        -7.6700    3.8750    1.2530 C.ar      1    LIG37    0.0000
     18 C13        -8.1180    5.2060    1.2290 C.ar      1    LIG37    0.0000
     19 C14        -8.2200    5.8990    0.0080 C.ar      1    LIG37    0.0000
     20 C15         0.9610    5.3810    0.7150 C.3       1    LIG37    0.0000
     21 N5         -8.6330    7.1900   -0.0120 N.pl3     1    LIG37    0.0000
     22 C16        -9.9600    7.4970   -0.4320 C.2       1    LIG37    0.0000
     23 C17        -7.7300    8.2190    0.3880 C.3       1    LIG37    0.0000
     24 H1         -1.4829    6.5469    0.4595 H         1    LIG37    0.0000
     25 H2         -3.7497    6.4660    0.2423 H         1    LIG37    0.0000
     26 H3         -4.3245    5.0380   -0.7012 H         1    LIG37    0.0000
     27 H4         -4.4990    5.0625    1.0957 H         1    LIG37    0.0000
     28 H5         -1.8014    0.7289    0.4896 H         1    LIG37    0.0000
     29 H6         -3.5693   -1.0426    0.3637 H         1    LIG37    0.0000
     30 H7         -4.8723    3.6055    0.2153 H         1    LIG37    0.0000
     31 H8         -5.8681   -0.3746    0.1736 H         1    LIG37    0.0000
     32 H9         -7.5259    1.1848    0.0273 H         1    LIG37    0.0000
     33 H10        -7.9620    5.7735   -2.1416 H         1    LIG37    0.0000
     34 H11        -7.1676    3.4121   -2.1006 H         1    LIG37    0.0000
     35 H12        -7.5964    3.3429    2.2015 H         1    LIG37    0.0000
     36 H13        -8.3879    5.7045    2.1600 H         1    LIG37    0.0000
     37 H14         1.6761    4.5620    0.7927 H         1    LIG37    0.0000
     38 H15         1.1256    5.9790   -0.1813 H         1    LIG37    0.0000
     39 H16         0.9489    5.9952    1.6154 H         1    LIG37    0.0000
     40 H17       -10.2998    8.5325   -0.4509 H         1    LIG37    0.0000
     41 H18       -10.6350    6.6963   -0.7343 H         1    LIG37    0.0000
     42 H19        -8.2636    9.1650    0.2954 H         1    LIG37    0.0000
     43 H20        -7.4482    8.0121    1.4204 H         1    LIG37    0.0000
     44 H21        -6.8730    8.1697   -0.2837 H         1    LIG37    0.0000
@<TRIPOS>BOND
     1    1    4 ar
     2    1    6 ar
     3    1   20 1
     4    2    3 ar
     5    2    4 ar
     6    2    5 1
     7    3    6 ar
     8    3    7 1
     9    7    8 ar
    10    7   11 ar
    11    8    9 ar
    12    9   12 ar
    13   10   11 ar
    14   10   12 ar
    15   10   13 2
    16   13   14 1
    17   14   16 ar
    18   14   17 ar
    19   15   16 ar
    20   15   19 ar
    21   17   18 ar
    22   18   19 ar
    23   19   21 1
    24   21   22 2
    25   21   23 1
    26    4   24 1
    27    5   25 1
    28    5   26 1
    29    5   27 1
    30    8   28 1
    31    9   29 1
    32   11   30 1
    33   12   31 1
    34   13   32 1
    35   15   33 1
    36   16   34 1
    37   17   35 1
    38   18   36 1
    39   20   37 1
    40   20   38 1
    41   20   39 1
    42   22   40 1
    43   22   41 1
    44   23   42 1
    45   23   43 1
    46   23   44 1
@<TRIPOS>SUBSTRUCTURE
     1    LIG37    1   GROUP 1   LIG 1
@<TRIPOS>MOLECULE
50579848
   47    49    1     0     0
SMALL
USER_CHARGES


@<TRIPOS>ATOM
      1 C1         12.0670   -4.7040    0.4400 C.ar      1    LIG38    0.0000
      2 C2         12.2240   -6.0840    0.2530 C.ar      1    LIG38    0.0000
      3 N1         13.4620   -6.6190    0.1510 N.pl3     1    LIG38    0.0000
      4 C3         14.5760   -5.8560    0.2300 C.ar      1    LIG38    0.0000
      5 N2         14.4350   -4.5190    0.4190 N.pl3     1    LIG38    0.0000
      6 C4         13.2270   -3.9090    0.5250 C.ar      1    LIG38    0.0000
      7 N3         15.7790   -6.4570    0.0790 N.pl3     1    LIG38    0.0000
      8 C5         16.9650   -5.8060    0.0730 C.ar      1    LIG38    0.0000
      9 C6         17.7470   -5.8220   -1.0960 C.ar      1    LIG38    0.0000
     10 C7         18.9850   -5.1570   -1.1390 C.ar      1    LIG38    0.0000
     11 C8         19.4670   -4.5040    0.0170 C.ar      1    LIG38    0.0000
     12 C9         18.6830   -4.4760    1.1930 C.ar      1    LIG38    0.0000
     13 C10        17.4420   -5.1350    1.2140 C.ar      1    LIG38    0.0000
     14 C11        13.1290   -2.5110    0.6940 C.ar      1    LIG38    0.0000
     15 S1         11.5920   -1.7080    0.7140 S.2       1    LIG38    0.0000
     16 C12        12.4510   -0.2160    0.8950 C.ar      1    LIG38    0.0000
     17 N4         13.7830   -0.3370    0.9540 N.pl3     1    LIG38    0.0000
     18 C13        14.1900   -1.6090    0.8470 C.ar      1    LIG38    0.0000
     19 C14        15.6180   -1.9470    0.8970 C.3       1    LIG38    0.0000
     20 N5         11.8500    0.9860    0.9650 N.pl3     1    LIG38    0.0000
     21 O1         20.7000   -3.9340   -0.0010 O.2       1    LIG38    0.0000
     22 C15        21.7810   -4.6600    0.5870 C.2       1    LIG38    0.0000
     23 O2         19.0810   -3.8670    2.3450 O.2       1    LIG38    0.0000
     24 C16        19.5080   -2.5020    2.3410 C.2       1    LIG38    0.0000
     25 O3         19.6830   -5.2140   -2.3090 O.2       1    LIG38    0.0000
     26 C17        20.1560   -4.0150   -2.9300 C.2       1    LIG38    0.0000
     27 C18        10.4430    1.1370    0.8890 C.2       1    LIG38    0.0000
     28 H1         11.0753   -4.2583    0.5175 H         1    LIG38    0.0000
     29 H2         11.3465   -6.7275    0.1896 H         1    LIG38    0.0000
     30 H3         13.5591   -7.6346    0.0094 H         1    LIG38    0.0000
     31 H4         15.2845   -3.9404    0.4851 H         1    LIG38    0.0000
     32 H5         15.7927   -7.4801   -0.0395 H         1    LIG38    0.0000
     33 H6         17.3898   -6.3551   -1.9771 H         1    LIG38    0.0000
     34 H7         16.8424   -5.1262    2.1242 H         1    LIG38    0.0000
     35 H8         14.4246    0.4605    1.0691 H         1    LIG38    0.0000
     36 H9         16.1627   -1.0113    1.0230 H         1    LIG38    0.0000
     37 H10        15.7578   -2.6150    1.7469 H         1    LIG38    0.0000
     38 H11        15.8633   -2.4348   -0.0464 H         1    LIG38    0.0000
     39 H12        12.4339    1.8269    1.0779 H         1    LIG38    0.0000
     40 H13        22.7846   -4.2347    0.5914 H         1    LIG38    0.0000
     41 H14        21.6021   -5.6392    1.0312 H         1    LIG38    0.0000
     42 H15        19.8239   -2.0270    3.2698 H         1    LIG38    0.0000
     43 H16        19.5176   -1.9367    1.4091 H         1    LIG38    0.0000
     44 H17        20.7133   -4.0689   -3.8652 H         1    LIG38    0.0000
     45 H18        19.9591   -3.0476   -2.4679 H         1    LIG38    0.0000
     46 H19         9.9973    2.1299    0.9501 H         1    LIG38    0.0000
     47 H20         9.8064    0.2603    0.7695 H         1    LIG38    0.0000
@<TRIPOS>BOND
     1    1    2 ar
     2    1    6 ar
     3    2    3 ar
     4    3    4 ar
     5    4    5 ar
     6    4    7 1
     7    5    6 ar
     8    6   14 1
     9    7    8 1
    10    8    9 ar
    11    8   13 ar
    12    9   10 ar
    13   10   11 ar
    14   10   25 1
    15   11   12 ar
    16   11   21 1
    17   12   13 ar
    18   12   23 1
    19   14   15 ar
    20   14   18 ar
    21   15   16 ar
    22   16   17 ar
    23   16   20 1
    24   17   18 ar
    25   18   19 1
    26   20   27 2
    27   21   22 2
    28   23   24 2
    29   25   26 2
    30    1   28 1
    31    2   29 1
    32    3   30 1
    33    5   31 1
    34    7   32 1
    35    9   33 1
    36   13   34 1
    37   17   35 1
    38   19   36 1
    39   19   37 1
    40   19   38 1
    41   20   39 1
    42   22   40 1
    43   22   41 1
    44   24   42 1
    45   24   43 1
    46   26   44 1
    47   26   45 1
    48   27   46 1
    49   27   47 1
@<TRIPOS>SUBSTRUCTURE
     1    LIG38    1   GROUP 1   LIG 1
@<TRIPOS>MOLECULE
50579851
   42    44    1     0     0
SMALL
USER_CHARGES


@<TRIPOS>ATOM
      1 C1         12.4600    1.2190    0.4500 C.ar      1    LIG39    0.0000
      2 C2         12.6430   -0.1670    0.3660 C.ar      1    LIG39    0.0000
      3 N1         13.8920   -0.6840    0.3130 N.pl3     1    LIG39    0.0000
      4 C3         14.9920    0.1030    0.3420 C.ar      1    LIG39    0.0000
      5 N2         14.8240    1.4480    0.4220 N.pl3     1    LIG39    0.0000
      6 C4         13.6030    2.0400    0.4750 C.ar      1    LIG39    0.0000
      7 N3         16.2050   -0.4960    0.2710 N.pl3     1    LIG39    0.0000
      8 C5         17.4030    0.1390    0.2770 C.ar      1    LIG39    0.0000
      9 C6         17.7440    1.0970    1.2530 C.ar      1    LIG39    0.0000
     10 C7         19.0030    1.7210    1.2280 C.ar      1    LIG39    0.0000
     11 C8         19.9480    1.3850    0.2360 C.ar      1    LIG39    0.0000
     12 C9         19.6120    0.4120   -0.7250 C.ar      1    LIG39    0.0000
     13 C10        18.3510   -0.2090   -0.7020 C.ar      1    LIG39    0.0000
     14 C11        13.4730    3.4440    0.5450 C.ar      1    LIG39    0.0000
     15 S1         11.9150    4.2020    0.5970 S.2       1    LIG39    0.0000
     16 C12        12.7340    5.7250    0.6480 C.ar      1    LIG39    0.0000
     17 N4         14.0710    5.6490    0.6280 N.pl3     1    LIG39    0.0000
     18 C13        14.5100    4.3840    0.5700 C.ar      1    LIG39    0.0000
     19 C14        15.9480    4.0930    0.5490 C.3       1    LIG39    0.0000
     20 C15        12.0150    6.9960    0.7120 C.3       1    LIG39    0.0000
     21 N5         21.1770    1.9530    0.1600 N.pl3     1    LIG39    0.0000
     22 C16        21.6510    2.9720    1.0280 C.3       1    LIG39    0.0000
     23 H1         11.4599    1.6501    0.4948 H         1    LIG39    0.0000
     24 H2         11.7780   -0.8299    0.3433 H         1    LIG39    0.0000
     25 H3         14.0087   -1.7053    0.2488 H         1    LIG39    0.0000
     26 H4         15.6616    2.0471    0.4435 H         1    LIG39    0.0000
     27 H5         16.2184   -1.5239    0.2068 H         1    LIG39    0.0000
     28 H6         17.0268    1.3555    2.0320 H         1    LIG39    0.0000
     29 H7         19.2510    2.4698    1.9803 H         1    LIG39    0.0000
     30 H8         20.3355    0.1382   -1.4929 H         1    LIG39    0.0000
     31 H9         18.1063   -0.9653   -1.4479 H         1    LIG39    0.0000
     32 H10        14.6920    6.4703    0.6542 H         1    LIG39    0.0000
     33 H11        16.4674    5.0508    0.5785 H         1    LIG39    0.0000
     34 H12        16.1636    3.4878    1.4295 H         1    LIG39    0.0000
     35 H13        16.1500    3.5508   -0.3747 H         1    LIG39    0.0000
     36 H14        12.7656    7.7860    0.7335 H         1    LIG39    0.0000
     37 H15        11.3908    7.0543   -0.1796 H         1    LIG39    0.0000
     38 H16        11.4183    6.9790    1.6240 H         1    LIG39    0.0000
     39 H17        21.8120    1.6217   -0.5802 H         1    LIG39    0.0000
     40 H18        22.6654    3.2142    0.7111 H         1    LIG39    0.0000
     41 H19        20.9782    3.8225    0.9183 H         1    LIG39    0.0000
     42 H20        21.6285    2.5653    2.0390 H         1    LIG39    0.0000
@<TRIPOS>BOND
     1    1    2 ar
     2    1    6 ar
     3    2    3 ar
     4    3    4 ar
     5    4    5 ar
     6    4    7 1
     7    5    6 ar
     8    6   14 1
     9    7    8 1
    10    8    9 ar
    11    8   13 ar
    12    9   10 ar
    13   10   11 ar
    14   11   12 ar
    15   11   21 2
    16   12   13 ar
    17   14   15 ar
    18   14   18 ar
    19   15   16 ar
    20   16   17 ar
    21   16   20 1
    22   17   18 ar
    23   18   19 1
    24   21   22 1
    25    1   23 1
    26    2   24 1
    27    3   25 1
    28    5   26 1
    29    7   27 1
    30    9   28 1
    31   10   29 1
    32   12   30 1
    33   13   31 1
    34   17   32 1
    35   19   33 1
    36   19   34 1
    37   19   35 1
    38   20   36 1
    39   20   37 1
    40   20   38 1
    41   21   39 1
    42   22   40 1
    43   22   41 1
    44   22   42 1
@<TRIPOS>SUBSTRUCTURE
     1    LIG39    1   GROUP 1   LIG 1
@<TRIPOS>MOLECULE
50579841
   57    60    1     0     0
SMALL
USER_CHARGES


@<TRIPOS>ATOM
      1 C1          4.3510  -24.2110    0.3040 C.ar      1    LIG40    0.0000
      2 C2          4.5730  -25.5880    0.1660 C.ar      1    LIG40    0.0000
      3 N1          5.8370  -26.0720    0.1480 N.pl3     1    LIG40    0.0000
      4 C3          6.9130  -25.2600    0.2670 C.ar      1    LIG40    0.0000
      5 N2          6.7070  -23.9250    0.4020 N.pl3     1    LIG40    0.0000
      6 C4          5.4700  -23.3660    0.4240 C.ar      1    LIG40    0.0000
      7 N3          8.1420  -25.8240    0.2210 N.pl3     1    LIG40    0.0000
      8 C5          9.3200  -25.1590    0.3130 C.ar      1    LIG40    0.0000
      9 C6         10.3080  -25.4110   -0.6560 C.ar      1    LIG40    0.0000
     10 C7         11.5520  -24.7600   -0.5900 C.ar      1    LIG40    0.0000
     11 C8         11.8270  -23.8590    0.4570 C.ar      1    LIG40    0.0000
     12 C9         10.8450  -23.6170    1.4360 C.ar      1    LIG40    0.0000
     13 C10         9.6010  -24.2670    1.3680 C.ar      1    LIG40    0.0000
     14 C11         5.3010  -21.9710    0.5520 C.ar      1    LIG40    0.0000
     15 S1          3.7220  -21.2550    0.5540 S.2       1    LIG40    0.0000
     16 C12         4.4980  -19.7160    0.7130 C.ar      1    LIG40    0.0000
     17 N4          5.8350  -19.7590    0.7640 N.pl3     1    LIG40    0.0000
     18 C13         6.3100  -21.0090    0.6770 C.ar      1    LIG40    0.0000
     19 C14         7.7540  -21.2640    0.7240 C.3       1    LIG40    0.0000
     20 N5          3.8260  -18.5540    0.7830 N.pl3     1    LIG40    0.0000
     21 N6         13.0300  -23.2320    0.5210 N.pl3     1    LIG40    0.0000
     22 C15        13.4550  -22.3260   -0.4970 C.3       1    LIG40    0.0000
     23 C16        13.7640  -20.9620    0.1420 C.3       1    LIG40    0.0000
     24 N7         14.6670  -21.1430    1.2390 N.am      1    LIG40    0.0000
     25 C17        14.2150  -22.0420    2.2580 C.3       1    LIG40    0.0000
     26 C18        13.9110  -23.4120    1.6300 C.3       1    LIG40    0.0000
     27 C19        15.8840  -20.5260    1.3150 C.2       1    LIG40    0.0000
     28 O1         16.6340  -20.7290    2.2970 O.2       1    LIG40    0.0000
     29 C20        16.3740  -19.6140    0.2760 C.3       1    LIG40    0.0000
     30 C21         2.4120  -18.5000    0.7300 C.2       1    LIG40    0.0000
     31 H1          3.3393  -23.8056    0.3180 H         1    LIG40    0.0000
     32 H2          3.7274  -26.2695    0.0731 H         1    LIG40    0.0000
     33 H3          5.9838  -27.0858    0.0408 H         1    LIG40    0.0000
     34 H4          7.5268  -23.3079    0.4919 H         1    LIG40    0.0000
     35 H5          8.1865  -26.8466    0.1062 H         1    LIG40    0.0000
     36 H6         10.1076  -26.1156   -1.4632 H         1    LIG40    0.0000
     37 H7         12.3069  -24.9532   -1.3522 H         1    LIG40    0.0000
     38 H8         11.0504  -22.9223    2.2505 H         1    LIG40    0.0000
     39 H9          8.8493  -24.0806    2.1350 H         1    LIG40    0.0000
     40 H10         6.4317  -18.9249    0.8594 H         1    LIG40    0.0000
     41 H11         8.2454  -20.2963    0.8252 H         1    LIG40    0.0000
     42 H12         7.9367  -21.9036    1.5875 H         1    LIG40    0.0000
     43 H13         8.0209  -21.7583   -0.2101 H         1    LIG40    0.0000
     44 H14         4.3559  -17.6759    0.8781 H         1    LIG40    0.0000
     45 H15        12.6225  -22.2219   -1.1929 H         1    LIG40    0.0000
     46 H16        14.3101  -22.7473   -1.0256 H         1    LIG40    0.0000
     47 H17        12.8658  -20.4546    0.4939 H         1    LIG40    0.0000
     48 H18        14.2762  -20.3310   -0.5843 H         1    LIG40    0.0000
     49 H19        13.2967  -21.6189    2.6653 H         1    LIG40    0.0000
     50 H20        14.9654  -22.1021    3.0463 H         1    LIG40    0.0000
     51 H21        14.8306  -23.8430    1.2343 H         1    LIG40    0.0000
     52 H22        13.4661  -24.1107    2.3385 H         1    LIG40    0.0000
     53 H23        17.3597  -19.2718    0.5914 H         1    LIG40    0.0000
     54 H24        16.4206  -20.1838   -0.6520 H         1    LIG40    0.0000
     55 H25        15.6611  -18.7920    0.2114 H         1    LIG40    0.0000
     56 H26         1.9007  -17.5392    0.7897 H         1    LIG40    0.0000
     57 H27         1.8349  -19.4192    0.6295 H         1    LIG40    0.0000
@<TRIPOS>BOND
     1    1    2 ar
     2    1    6 ar
     3    2    3 ar
     4    3    4 ar
     5    4    5 ar
     6    4    7 2
     7    5    6 ar
     8    6   14 1
     9    7    8 1
    10    8    9 ar
    11    8   13 ar
    12    9   10 ar
    13   10   11 ar
    14   11   12 ar
    15   11   21 1
    16   12   13 ar
    17   14   15 ar
    18   14   18 ar
    19   15   16 ar
    20   16   17 ar
    21   16   20 1
    22   17   18 ar
    23   18   19 1
    24   20   30 2
    25   21   22 1
    26   21   26 1
    27   22   23 1
    28   23   24 1
    29   24   25 1
    30   24   27 am
    31   25   26 1
    32   27   28 2
    33   27   29 1
    34    1   31 1
    35    2   32 1
    36    3   33 1
    37    5   34 1
    38    7   35 1
    39    9   36 1
    40   10   37 1
    41   12   38 1
    42   13   39 1
    43   17   40 1
    44   19   41 1
    45   19   42 1
    46   19   43 1
    47   20   44 1
    48   22   45 1
    49   22   46 1
    50   23   47 1
    51   23   48 1
    52   25   49 1
    53   25   50 1
    54   26   51 1
    55   26   52 1
    56   29   53 1
    57   29   54 1
    58   29   55 1
    59   30   56 1
    60   30   57 1
@<TRIPOS>SUBSTRUCTURE
     1    LIG40    1   GROUP 1   LIG 1
@<TRIPOS>MOLECULE
50077179
   62    65    1     0     0
SMALL
USER_CHARGES


@<TRIPOS>ATOM
      1 C1         22.5580   -9.2870    0.4760 C.ar      1    LIG41    0.0000
      2 C2         22.9300  -10.3310   -0.4030 C.ar      1    LIG41    0.0000
      3 C3         23.7900  -11.3590    0.0120 C.ar      1    LIG41    0.0000
      4 C4         23.0870   -9.3090    1.7900 C.ar      1    LIG41    0.0000
      5 C5         23.9600  -10.3310    2.2300 C.ar      1    LIG41    0.0000
      6 C6         24.2990  -11.3630    1.3190 C.ar      1    LIG41    0.0000
      7 N1         25.1150  -12.3720    1.7070 N.pl3     1    LIG41    0.0000
      8 C7         25.6490  -12.4720    2.9510 C.ar      1    LIG41    0.0000
      9 C8         25.3450  -11.4690    3.8920 C.ar      1    LIG41    0.0000
     10 C9         24.5090  -10.3900    3.5380 C.ar      1    LIG41    0.0000
     11 C10        21.6720   -8.2500    0.0510 C.ar      1    LIG41    0.0000
     12 C11        24.2650   -9.4310    4.5010 C.2       1    LIG41    0.0000
     13 O1         24.4080   -8.2420    4.2660 O.co2     1    LIG41   -0.5000
     14 O2         23.9360   -9.7780    5.7320 O.co2     1    LIG41   -0.5000
     15 C12        26.4830  -13.5650    3.2570 C.2       1    LIG41    0.0000
     16 N2         26.7840  -14.4600    2.2890 N.am      1    LIG41    0.0000
     17 O3         26.9610  -13.7150    4.4060 O.2       1    LIG41    0.0000
     18 C13        27.6200  -15.5950    2.4810 C.3       1    LIG41    0.0000
     19 C14        27.9920  -16.1600    1.0940 C.3       1    LIG41    0.0000
     20 C15        26.8790  -16.6550    3.3310 C.3       1    LIG41    0.0000
     21 C16        27.7040  -17.8410    3.6400 C.ar      1    LIG41    0.0000
     22 C17        27.3510  -19.1130    3.1420 C.ar      1    LIG41    0.0000
     23 C18        28.1410  -20.2380    3.4360 C.ar      1    LIG41    0.0000
     24 C19        29.2900  -20.1020    4.2320 C.ar      1    LIG41    0.0000
     25 C20        29.6470  -18.8390    4.7370 C.ar      1    LIG41    0.0000
     26 C21        28.8560  -17.7150    4.4430 C.ar      1    LIG41    0.0000
     27 C22        21.7020   -7.7610   -1.2770 C.ar      1    LIG41    0.0000
     28 C23        20.8290   -6.7470   -1.6970 C.ar      1    LIG41    0.0000
     29 C24        19.9070   -6.1990   -0.7950 C.ar      1    LIG41    0.0000
     30 C25        19.8420   -6.6530    0.5390 C.ar      1    LIG41    0.0000
     31 C26        20.7300   -7.6770    0.9410 C.ar      1    LIG41    0.0000
     32 C27        18.8500   -6.0490    1.4680 C.3       1    LIG41    0.0000
     33 F1         18.8860   -6.5630    2.7440 F         1    LIG41    0.0000
     34 F2         19.0670   -4.6960    1.5780 F         1    LIG41    0.0000
     35 F3         17.5760   -6.2470    0.9930 F         1    LIG41    0.0000
     36 O4         30.0460  -21.1860    4.5090 O.2       1    LIG41    0.0000
     37 C28        28.7670  -15.1290    0.2560 C.3       1    LIG41    0.0000
     38 C29        29.1800  -15.7340   -1.0910 C.3       1    LIG41    0.0000
     39 H1         22.5414  -10.3370   -1.4214 H         1    LIG41    0.0000
     40 H2         24.0626  -12.1546   -0.6814 H         1    LIG41    0.0000
     41 H3         22.8128   -8.5138    2.4832 H         1    LIG41    0.0000
     42 H4         25.3431  -13.1044    1.0197 H         1    LIG41    0.0000
     43 H5         25.7581  -11.5272    4.8990 H         1    LIG41    0.0000
     44 H6         26.3822  -14.3104    1.3525 H         1    LIG41    0.0000
     45 H7         28.5287  -15.3162    3.0145 H         1    LIG41    0.0000
     46 H8         27.0741  -16.4159    0.5647 H         1    LIG41    0.0000
     47 H9         28.6273  -17.0343    1.2359 H         1    LIG41    0.0000
     48 H10        25.9966  -17.0015    2.7930 H         1    LIG41    0.0000
     49 H11        26.6480  -16.1991    4.2937 H         1    LIG41    0.0000
     50 H12        26.4594  -19.2242    2.5249 H         1    LIG41    0.0000
     51 H13        27.8615  -21.2167    3.0458 H         1    LIG41    0.0000
     52 H14        30.5373  -18.7317    5.3566 H         1    LIG41    0.0000
     53 H15        29.1353  -16.7386    4.8388 H         1    LIG41    0.0000
     54 H16        22.4163   -8.1800   -1.9858 H         1    LIG41    0.0000
     55 H17        20.8676   -6.3853   -2.7245 H         1    LIG41    0.0000
     56 H18        19.2312   -5.4116   -1.1286 H         1    LIG41    0.0000
     57 H19        20.6887   -8.0374    1.9689 H         1    LIG41    0.0000
     58 H20        29.6630  -14.8289    0.7993 H         1    LIG41    0.0000
     59 H21        28.1255  -14.2670    0.0729 H         1    LIG41    0.0000
     60 H22        29.7216  -14.9603   -1.6352 H         1    LIG41    0.0000
     61 H23        29.8125  -16.5946   -0.8733 H         1    LIG41    0.0000
     62 H24        28.2634  -16.0243   -1.6044 H         1    LIG41    0.0000
@<TRIPOS>BOND
     1    1    2 ar
     2    1    4 ar
     3    1   11 1
     4    2    3 ar
     5    3    6 ar
     6    4    5 ar
     7    5    6 ar
     8    5   10 ar
     9    6    7 ar
    10    7    8 ar
    11    8    9 ar
    12    8   15 1
    13    9   10 ar
    14   10   12 1
    15   11   27 ar
    16   11   31 ar
    17   12   13 am
    18   12   14 am
    19   15   16 am
    20   15   17 2
    21   16   18 1
    22   18   19 1
    23   18   20 1
    24   19   37 1
    25   20   21 1
    26   21   22 ar
    27   21   26 ar
    28   22   23 ar
    29   23   24 ar
    30   24   25 ar
    31   24   36 2
    32   25   26 ar
    33   27   28 ar
    34   28   29 ar
    35   29   30 ar
    36   30   31 ar
    37   30   32 1
    38   32   33 1
    39   32   34 1
    40   32   35 1
    41   37   38 1
    42    2   39 1
    43    3   40 1
    44    4   41 1
    45    7   42 1
    46    9   43 1
    47   16   44 1
    48   18   45 1
    49   19   46 1
    50   19   47 1
    51   20   48 1
    52   20   49 1
    53   22   50 1
    54   23   51 1
    55   25   52 1
    56   26   53 1
    57   27   54 1
    58   28   55 1
    59   29   56 1
    60   31   57 1
    61   37   58 1
    62   37   59 1
    63   38   60 1
    64   38   61 1
    65   38   62 1
@<TRIPOS>SUBSTRUCTURE
     1    LIG41    1   GROUP 1   LIG 1
@<TRIPOS>MOLECULE
50375321
   39    42    1     0     0
SMALL
USER_CHARGES


@<TRIPOS>ATOM
      1 C1         -0.3720  -24.4820    1.2290 C.ar      1    LIG42    0.0000
      2 C2         -0.3590  -25.8800    1.0910 C.ar      1    LIG42    0.0000
      3 C3          1.7900  -24.3410    0.1170 C.ar      1    LIG42    0.0000
      4 C4          0.6940  -23.7020    0.7350 C.ar      1    LIG42    0.0000
      5 C5          1.8120  -25.7430   -0.0250 C.ar      1    LIG42    0.0000
      6 C6          0.7280  -26.5150    0.4660 C.ar      1    LIG42    0.0000
      7 N1          0.7480  -27.8650    0.3310 N.pl3     1    LIG42    0.0000
      8 C7          1.7720  -28.5290   -0.2610 C.ar      1    LIG42    0.0000
      9 C8          2.8700  -27.8130   -0.7630 C.ar      1    LIG42    0.0000
     10 C9          2.8850  -26.4140   -0.6420 C.ar      1    LIG42    0.0000
     11 C10         0.6600  -22.3350    0.8990 C.2       1    LIG42    0.0000
     12 C11         0.8230  -21.4680   -0.1100 C.ar      1    LIG42    0.0000
     13 C12         0.7880  -20.1080    0.0310 C.ar      1    LIG42    0.0000
     14 N2          0.9520  -19.4530   -1.0830 N.am      1    LIG42    0.0000
     15 C13         1.1150  -20.2510   -2.1020 C.ar      1    LIG42    0.0000
     16 S1          1.0740  -21.9420   -1.7280 S.2       1    LIG42    0.0000
     17 O1          0.6160  -19.5180    1.1210 O.2       1    LIG42    0.0000
     18 N3          1.2970  -19.7750   -3.3460 N.pl3     1    LIG42    0.0000
     19 C14         1.4730  -20.6320   -4.4640 C.3       1    LIG42    0.0000
     20 C15         1.6340  -19.8450   -5.6900 C.ar      1    LIG42    0.0000
     21 S2          0.5170  -19.9510   -7.0130 S.2       1    LIG42    0.0000
     22 C16         1.4820  -18.7900   -7.8640 C.ar      1    LIG42    0.0000
     23 C17         2.5970  -18.3570   -7.1600 C.ar      1    LIG42    0.0000
     24 C18         2.6850  -18.9610   -5.9160 C.ar      1    LIG42    0.0000
     25 H1         -1.2136  -23.9958    1.7223 H         1    LIG42    0.0000
     26 H2         -1.1923  -26.4725    1.4688 H         1    LIG42    0.0000
     27 H3          2.6251  -23.7462   -0.2530 H         1    LIG42    0.0000
     28 H4         -0.0482  -28.4087    0.6935 H         1    LIG42    0.0000
     29 H5          1.7423  -29.6152   -0.3466 H         1    LIG42    0.0000
     30 H6          3.6992  -28.3355   -1.2400 H         1    LIG42    0.0000
     31 H7          3.7311  -25.8451   -1.0275 H         1    LIG42    0.0000
     32 H8          0.4920  -21.9381    1.9002 H         1    LIG42    0.0000
     33 H9          0.9529  -18.4253   -1.1513 H         1    LIG42    0.0000
     34 H10         1.3091  -18.7556   -3.4927 H         1    LIG42    0.0000
     35 H11         0.5788  -21.2489   -4.5534 H         1    LIG42    0.0000
     36 H12         2.3502  -21.2571   -4.2971 H         1    LIG42    0.0000
     37 H13         1.2352  -18.4317   -8.8634 H         1    LIG42    0.0000
     38 H14         3.3157  -17.6306   -7.5393 H         1    LIG42    0.0000
     39 H15         3.4829  -18.7668   -5.1992 H         1    LIG42    0.0000
@<TRIPOS>BOND
     1    1    2 ar
     2    1    4 ar
     3    2    6 ar
     4    3    4 ar
     5    3    5 ar
     6    4   11 1
     7    5    6 ar
     8    5   10 ar
     9    6    7 ar
    10    7    8 ar
    11    8    9 ar
    12    9   10 ar
    13   11   12 1
    14   12   13 ar
    15   12   16 ar
    16   13   14 ar
    17   13   17 2
    18   14   15 ar
    19   15   16 ar
    20   15   18 1
    21   18   19 1
    22   19   20 1
    23   20   21 ar
    24   20   24 ar
    25   21   22 ar
    26   22   23 ar
    27   23   24 ar
    28    1   25 1
    29    2   26 1
    30    3   27 1
    31    7   28 1
    32    8   29 1
    33    9   30 1
    34   10   31 1
    35   11   32 1
    36   14   33 1
    37   18   34 1
    38   19   35 1
    39   19   36 1
    40   22   37 1
    41   23   38 1
    42   24   39 1
@<TRIPOS>SUBSTRUCTURE
     1    LIG42    1   GROUP 1   LIG 1
@<TRIPOS>MOLECULE
50579965
   49    52    1     0     0
SMALL
USER_CHARGES


@<TRIPOS>ATOM
      1 C1         14.5790   -7.1820    0.5600 C.ar      1    LIG43    0.0000
      2 C2         14.5660   -8.5890    0.5630 C.ar      1    LIG43    0.0000
      3 N1         15.7540   -9.2410    0.5890 N.pl3     1    LIG43    0.0000
      4 C3         16.9530   -8.6080    0.6110 C.ar      1    LIG43    0.0000
      5 N2         16.9680   -7.2550    0.6090 N.pl3     1    LIG43    0.0000
      6 C4         15.8220   -6.5330    0.5850 C.ar      1    LIG43    0.0000
      7 N3         18.1220   -9.2880    0.6350 N.pl3     1    LIG43    0.0000
      8 C5         18.1830  -10.6380    0.6370 C.ar      1    LIG43    0.0000
      9 C6         18.2400  -11.3450   -0.5790 C.ar      1    LIG43    0.0000
     10 C7         18.2400  -12.7500   -0.5780 C.ar      1    LIG43    0.0000
     11 C8         18.1880  -13.4620    0.6370 C.ar      1    LIG43    0.0000
     12 C9         18.1500  -12.7510    1.8520 C.ar      1    LIG43    0.0000
     13 C10        18.1500  -11.3460    1.8540 C.ar      1    LIG43    0.0000
     14 N4         18.1510  -14.8210    0.6360 N.pl3     1    LIG43    0.0000
     15 C11        19.1650  -15.6030    0.0050 C.3       1    LIG43    0.0000
     16 C12        18.5120  -16.4930   -1.0640 C.3       1    LIG43    0.0000
     17 O1         17.4300  -17.2200   -0.4820 O.3       1    LIG43    0.0000
     18 C13        16.4210  -16.4290    0.1460 C.3       1    LIG43    0.0000
     19 C14        17.0600  -15.5340    1.2190 C.3       1    LIG43    0.0000
     20 C15        13.3550   -9.3100    0.5360 C.ar      1    LIG43    0.0000
     21 S1         11.8230   -8.5000    0.4930 S.2       1    LIG43    0.0000
     22 C16        11.0860  -10.0650    0.4780 C.ar      1    LIG43    0.0000
     23 N5         11.9340  -11.0980    0.5060 N.pl3     1    LIG43    0.0000
     24 C17        13.2130  -10.7040    0.5390 C.ar      1    LIG43    0.0000
     25 C18        14.3010  -11.6910    0.5730 C.3       1    LIG43    0.0000
     26 N6          9.7590  -10.2360    0.4410 N.pl3     1    LIG43    0.0000
     27 H1         13.6497   -6.6128    0.5389 H         1    LIG43    0.0000
     28 H2         15.7456  -10.2710    0.5922 H         1    LIG43    0.0000
     29 H3         17.8723   -6.7623    0.6261 H         1    LIG43    0.0000
     30 H4         15.8661   -5.4439    0.5851 H         1    LIG43    0.0000
     31 H5         19.0028   -8.7544    0.6525 H         1    LIG43    0.0000
     32 H6         18.2842  -10.8015   -1.5228 H         1    LIG43    0.0000
     33 H7         18.2805  -13.2925   -1.5226 H         1    LIG43    0.0000
     34 H8         18.1204  -13.2940    2.7967 H         1    LIG43    0.0000
     35 H9         18.1244  -10.8032    2.7989 H         1    LIG43    0.0000
     36 H10        19.6111  -16.2277    0.7789 H         1    LIG43    0.0000
     37 H11        19.9330  -14.9461   -0.4032 H         1    LIG43    0.0000
     38 H12        19.2170  -17.1933   -1.5119 H         1    LIG43    0.0000
     39 H13        18.0807  -15.8637   -1.8424 H         1    LIG43    0.0000
     40 H14        15.7333  -17.1268    0.6237 H         1    LIG43    0.0000
     41 H15        15.8909  -15.8544   -0.6135 H         1    LIG43    0.0000
     42 H16        16.3370  -14.7896    1.5524 H         1    LIG43    0.0000
     43 H17        17.4112  -16.0967    2.0840 H         1    LIG43    0.0000
     44 H18        11.6373  -12.0843    0.5026 H         1    LIG43    0.0000
     45 H19        13.8369  -12.6772    0.5654 H         1    LIG43    0.0000
     46 H20        14.9112  -11.5234   -0.3145 H         1    LIG43    0.0000
     47 H21        14.8628  -11.5146    1.4903 H         1    LIG43    0.0000
     48 H22         9.3622  -11.1865    0.4333 H         1    LIG43    0.0000
     49 H23         9.1346   -9.4171    0.4202 H         1    LIG43    0.0000
@<TRIPOS>BOND
     1    1    2 ar
     2    1    6 ar
     3    2    3 ar
     4    2   20 1
     5    3    4 ar
     6    4    5 ar
     7    4    7 2
     8    5    6 ar
     9    7    8 1
    10    8    9 ar
    11    8   13 ar
    12    9   10 ar
    13   10   11 ar
    14   11   12 ar
    15   11   14 1
    16   12   13 ar
    17   14   15 1
    18   14   19 1
    19   15   16 1
    20   16   17 1
    21   17   18 1
    22   18   19 1
    23   20   21 ar
    24   20   24 ar
    25   21   22 ar
    26   22   23 ar
    27   22   26 1
    28   23   24 ar
    29   24   25 1
    30    1   27 1
    31    3   28 1
    32    5   29 1
    33    6   30 1
    34    7   31 1
    35    9   32 1
    36   10   33 1
    37   12   34 1
    38   13   35 1
    39   15   36 1
    40   15   37 1
    41   16   38 1
    42   16   39 1
    43   18   40 1
    44   18   41 1
    45   19   42 1
    46   19   43 1
    47   23   44 1
    48   25   45 1
    49   25   46 1
    50   25   47 1
    51   26   48 1
    52   26   49 1
@<TRIPOS>SUBSTRUCTURE
     1    LIG43    1   GROUP 1   LIG 1
@<TRIPOS>MOLECULE
51251922
   27    28    1     0     0
SMALL
USER_CHARGES


@<TRIPOS>ATOM
      1 C1         -0.7300    4.7770    0.2820 C.ar      1    LIG44    0.0000
      2 C2         -2.5210    3.4600    0.3870 C.ar      1    LIG44    0.0000
      3 C3         -1.5020    2.5350    0.6410 C.ar      1    LIG44    0.0000
      4 N1         -2.0640    4.7030    0.1910 N.pl3     1    LIG44    0.0000
      5 C4         -0.0030    6.0320    0.1070 C.3       1    LIG44    0.0000
      6 C5         -3.9590    3.1730    0.3270 C.3       1    LIG44    0.0000
      7 S1          0.0640    3.2790    0.6240 S.2       1    LIG44    0.0000
      8 C6         -1.6560    1.1550    0.8900 C.ar      1    LIG44    0.0000
      9 C7         -0.5330    0.3410    1.1310 C.ar      1    LIG44    0.0000
     10 C8         -0.7440   -1.0240    1.3720 C.ar      1    LIG44    0.0000
     11 C9         -3.0720   -0.7390    1.1390 C.ar      1    LIG44    0.0000
     12 N2         -2.8870    0.5800    0.9030 N.pl3     1    LIG44    0.0000
     13 N3         -2.0000   -1.5290    1.3710 N.pl3     1    LIG44    0.0000
     14 N4         -4.3040   -1.2550    1.1420 N.pl3     1    LIG44    0.0000
     15 H1         -2.6704    5.5116   -0.0075 H         1    LIG44    0.0000
     16 H2          1.0562    5.8068    0.2318 H         1    LIG44    0.0000
     17 H3         -0.2252    6.3916   -0.8977 H         1    LIG44    0.0000
     18 H4         -0.3641    6.7189    0.8724 H         1    LIG44    0.0000
     19 H5         -4.4632    4.1148    0.1106 H         1    LIG44    0.0000
     20 H6         -4.1053    2.4428   -0.4689 H         1    LIG44    0.0000
     21 H7         -4.2453    2.7744    1.3003 H         1    LIG44    0.0000
     22 H8          0.4731    0.7605    1.1303 H         1    LIG44    0.0000
     23 H9          0.1056   -1.6803    1.5607 H         1    LIG44    0.0000
     24 H10        -3.7115    1.1716    0.7263 H         1    LIG44    0.0000
     25 H11        -2.1413   -2.5334    1.5503 H         1    LIG44    0.0000
     26 H12        -4.4411   -2.2598    1.3221 H         1    LIG44    0.0000
     27 H13        -5.1170   -0.6481    0.9642 H         1    LIG44    0.0000
@<TRIPOS>BOND
     1    1    4 ar
     2    1    5 1
     3    1    7 ar
     4    2    3 ar
     5    2    4 ar
     6    2    6 1
     7    3    7 ar
     8    3    8 1
     9    8    9 ar
    10    8   12 ar
    11    9   10 ar
    12   10   13 ar
    13   11   12 ar
    14   11   13 ar
    15   11   14 2
    16    4   15 1
    17    5   16 1
    18    5   17 1
    19    5   18 1
    20    6   19 1
    21    6   20 1
    22    6   21 1
    23    9   22 1
    24   10   23 1
    25   12   24 1
    26   13   25 1
    27   14   26 1
    28   14   27 1
@<TRIPOS>SUBSTRUCTURE
     1    LIG44    1   GROUP 1   LIG 1
@<TRIPOS>MOLECULE
51251926
   38    40    1     0     0
SMALL
USER_CHARGES


@<TRIPOS>ATOM
      1 C1          3.2170    1.4560    0.7210 C.ar      1    LIG45    0.0000
      2 N1          2.9680   -0.6550   -0.1200 N.pl3     1    LIG45    0.0000
      3 C2          4.2950   -0.4940   -0.1610 C.ar      1    LIG45    0.0000
      4 C3          2.3400    0.4230    0.3680 C.ar      1    LIG45    0.0000
      5 N2         -2.7450    1.6330   -0.4320 N.pl3     1    LIG45    0.0000
      6 S1          4.8700    1.0340    0.4110 S.2       1    LIG45    0.0000
      7 N3          1.5810    3.0330    1.5390 N.pl3     1    LIG45    0.0000
      8 C4          1.2110    4.2220    2.0790 C.ar      1    LIG45    0.0000
      9 C5          2.8740    2.7090    1.2730 C.ar      1    LIG45    0.0000
     10 C6         -2.5390    2.2930    0.7480 C.ar      1    LIG45    0.0000
     11 N4         -0.0720    4.5500    2.3650 N.pl3     1    LIG45    0.0000
     12 C7         -1.3970    3.1030    0.9370 C.ar      1    LIG45    0.0000
     13 N5          2.1740    5.1280    2.3660 N.pl3     1    LIG45    0.0000
     14 O1         -3.7770    1.0540   -0.6660 O.2       1    LIG45    0.0000
     15 O2         -1.9040    1.5890   -1.2910 O.2       1    LIG45    0.0000
     16 C8         -1.1590    3.7660    2.1590 C.ar      1    LIG45    0.0000
     17 N6          5.1130   -1.4490   -0.6150 N.pl3     1    LIG45    0.0000
     18 C9          3.8730    3.6540    1.5700 C.ar      1    LIG45    0.0000
     19 C10         3.4820    4.8790    2.1260 C.ar      1    LIG45    0.0000
     20 C11         0.8780    0.4490    0.4780 C.3       1    LIG45    0.0000
     21 C12        -3.4620    2.1830    1.8120 C.ar      1    LIG45    0.0000
     22 C13        -3.2500    2.8600    3.0240 C.ar      1    LIG45    0.0000
     23 C14        -2.1040    3.6510    3.1950 C.ar      1    LIG45    0.0000
     24 H1          2.4840   -1.5103   -0.4285 H         1    LIG45    0.0000
     25 H2          0.8474    2.3438    1.3205 H         1    LIG45    0.0000
     26 H3         -0.2368    5.4798    2.7765 H         1    LIG45    0.0000
     27 H4         -0.6841    3.2181    0.1205 H         1    LIG45    0.0000
     28 H5          1.9039    6.0323    2.7786 H         1    LIG45    0.0000
     29 H6          6.1305   -1.2902   -0.6321 H         1    LIG45    0.0000
     30 H7          4.7257   -2.3435   -0.9477 H         1    LIG45    0.0000
     31 H8          4.9232    3.4388    1.3728 H         1    LIG45    0.0000
     32 H9          4.2324    5.6324    2.3655 H         1    LIG45    0.0000
     33 H10         0.5142   -0.5134    0.1182 H         1    LIG45    0.0000
     34 H11         0.6403    0.6044    1.5304 H         1    LIG45    0.0000
     35 H12         0.5263    1.2730   -0.1429 H         1    LIG45    0.0000
     36 H13        -4.3510    1.5641    1.6905 H         1    LIG45    0.0000
     37 H14        -3.9760    2.7709    3.8321 H         1    LIG45    0.0000
     38 H15        -1.9449    4.1791    4.1352 H         1    LIG45    0.0000
@<TRIPOS>BOND
     1    1    4 ar
     2    1    6 ar
     3    1    9 1
     4    2    3 ar
     5    2    4 ar
     6    3    6 ar
     7    3   17 2
     8    4   20 1
     9    5   10 1
    10    5   14 2
    11    5   15 2
    12    7    8 ar
    13    7    9 ar
    14    8   11 1
    15    8   13 ar
    16    9   18 ar
    17   10   12 ar
    18   10   21 ar
    19   11   16 1
    20   12   16 ar
    21   13   19 ar
    22   16   23 ar
    23   18   19 ar
    24   21   22 ar
    25   22   23 ar
    26    2   24 1
    27    7   25 1
    28   11   26 1
    29   12   27 1
    30   13   28 1
    31   17   29 1
    32   17   30 1
    33   18   31 1
    34   19   32 1
    35   20   33 1
    36   20   34 1
    37   20   35 1
    38   21   36 1
    39   22   37 1
    40   23   38 1
@<TRIPOS>SUBSTRUCTURE
     1    LIG45    1   GROUP 1   LIG 1
@<TRIPOS>MOLECULE
153779
   47    49    1     0     0
SMALL
USER_CHARGES


@<TRIPOS>ATOM
      1 N1          1.9290    3.1070    1.2330 N.pl3     1    LIG46    0.0000
      2 C1          1.2320    2.0030    0.9340 C.ar      1    LIG46    0.0000
      3 C2          2.0480    0.9020    0.6470 C.ar      1    LIG46    0.0000
      4 S1          3.7310    1.2960    0.7760 S.2       1    LIG46    0.0000
      5 C3          3.2500    2.9050    1.1930 C.ar      1    LIG46    0.0000
      6 C4         -0.2340    2.0230    0.9360 C.3       1    LIG46    0.0000
      7 N2          4.1200    3.8940    1.4590 N.pl3     1    LIG46    0.0000
      8 C5          1.6250   -0.3940    0.2790 C.ar      1    LIG46    0.0000
      9 C6          2.5690   -1.4040    0.0180 C.ar      1    LIG46    0.0000
     10 C7          2.0980   -2.6690   -0.3570 C.ar      1    LIG46    0.0000
     11 N3          0.7680   -2.8940   -0.4620 N.pl3     1    LIG46    0.0000
     12 C8         -0.1410   -1.9250   -0.2070 C.ar      1    LIG46    0.0000
     13 N4          0.3060   -0.6960    0.1570 N.pl3     1    LIG46    0.0000
     14 N5         -1.4530   -2.2310   -0.3500 N.pl3     1    LIG46    0.0000
     15 C9         -2.4910   -1.3840   -0.1440 C.ar      1    LIG46    0.0000
     16 C10        -4.6060   -0.4610   -0.9410 C.ar      1    LIG46    0.0000
     17 C11        -3.5050   -1.3160   -1.1190 C.ar      1    LIG46    0.0000
     18 C12        -2.6110   -0.6070    1.0270 C.ar      1    LIG46    0.0000
     19 C13        -3.7090    0.2530    1.2100 C.ar      1    LIG46    0.0000
     20 C14        -4.7050    0.3250    0.2200 C.ar      1    LIG46    0.0000
     21 S2         -3.8310    1.2280    2.6420 S.O2      1    LIG46    0.0000
     22 O1         -5.3690    1.4760    2.9600 O.2       1    LIG46    0.0000
     23 O2         -2.7130    0.8020    3.6890 O.2       1    LIG46    0.0000
     24 C15         5.5220    3.6950    1.4210 C.3       1    LIG46    0.0000
     25 C16         6.2350    5.0090    1.7590 C.3       1    LIG46    0.0000
     26 N6         -3.3120    2.7360    2.1260 N.pl3     1    LIG46    0.0000
     27 H1          1.4954    4.0113    1.4677 H         1    LIG46    0.0000
     28 H2         -0.5668    1.0210    0.6653 H         1    LIG46    0.0000
     29 H3         -0.5476    2.2957    1.9436 H         1    LIG46    0.0000
     30 H4         -0.5436    2.7653    0.2004 H         1    LIG46    0.0000
     31 H5          3.7556    4.8272    1.6983 H         1    LIG46    0.0000
     32 H6          3.6376   -1.2077    0.1052 H         1    LIG46    0.0000
     33 H7          2.8040   -3.4731   -0.5645 H         1    LIG46    0.0000
     34 H8          0.4386   -3.8284   -0.7437 H         1    LIG46    0.0000
     35 H9         -0.3867    0.0415    0.3496 H         1    LIG46    0.0000
     36 H10        -1.6819   -3.1922   -0.6410 H         1    LIG46    0.0000
     37 H11        -5.3832   -0.4074   -1.7033 H         1    LIG46    0.0000
     38 H12        -3.4354   -1.9301   -2.0169 H         1    LIG46    0.0000
     39 H13        -1.8443   -0.6737    1.7989 H         1    LIG46    0.0000
     40 H14        -5.5564    0.9924    0.3534 H         1    LIG46    0.0000
     41 H15         5.7636    3.4077    0.3977 H         1    LIG46    0.0000
     42 H16         5.7887    2.8846    2.0994 H         1    LIG46    0.0000
     43 H17         7.3059    4.8101    1.7181 H         1    LIG46    0.0000
     44 H18         5.9296    5.7392    1.0096 H         1    LIG46    0.0000
     45 H19         5.9143    5.2973    2.7601 H         1    LIG46    0.0000
     46 H20        -3.3618    3.3661    2.9392 H         1    LIG46    0.0000
     47 H21        -2.3457    2.6225    1.7881 H         1    LIG46    0.0000
@<TRIPOS>BOND
     1    1    2 ar
     2    1    5 ar
     3    2    3 ar
     4    2    6 1
     5    3    4 ar
     6    3    8 1
     7    4    5 ar
     8    5    7 1
     9    7   24 1
    10    8    9 ar
    11    8   13 ar
    12    9   10 ar
    13   10   11 ar
    14   11   12 ar
    15   12   13 ar
    16   12   14 1
    17   14   15 1
    18   15   17 ar
    19   15   18 ar
    20   16   17 ar
    21   16   20 ar
    22   18   19 ar
    23   19   20 ar
    24   19   21 1
    25   21   22 2
    26   21   23 2
    27   21   26 1
    28   24   25 1
    29    1   27 1
    30    6   28 1
    31    6   29 1
    32    6   30 1
    33    7   31 1
    34    9   32 1
    35   10   33 1
    36   11   34 1
    37   13   35 1
    38   14   36 1
    39   16   37 1
    40   17   38 1
    41   18   39 1
    42   20   40 1
    43   24   41 1
    44   24   42 1
    45   25   43 1
    46   25   44 1
    47   25   45 1
    48   26   46 1
    49   26   47 1
@<TRIPOS>SUBSTRUCTURE
     1    LIG46    1   GROUP 1   LIG 1
@<TRIPOS>MOLECULE
50579967
   56    59    1     0     0
SMALL
USER_CHARGES


@<TRIPOS>ATOM
      1 C1         14.0530  -24.4610    0.6760 C.ar      1    LIG47    0.0000
      2 C2         14.1520  -25.8600    0.7030 C.ar      1    LIG47    0.0000
      3 N1         15.3610  -26.4600    0.5890 N.pl3     1    LIG47    0.0000
      4 C3         16.4980  -25.7410    0.4460 C.ar      1    LIG47    0.0000
      5 N2         16.4090  -24.3880    0.4210 N.pl3     1    LIG47    0.0000
      6 C4         15.2370  -23.7160    0.5300 C.ar      1    LIG47    0.0000
      7 N3         17.6820  -26.3840    0.3300 N.pl3     1    LIG47    0.0000
      8 C5         18.8560  -25.7340    0.1630 C.ar      1    LIG47    0.0000
      9 C6         19.2980  -25.3950   -1.1290 C.ar      1    LIG47    0.0000
     10 C7         20.4890  -24.6700   -1.3000 C.ar      1    LIG47    0.0000
     11 C8         21.2520  -24.2810   -0.1810 C.ar      1    LIG47    0.0000
     12 C9         20.8150  -24.6360    1.1100 C.ar      1    LIG47    0.0000
     13 C10        19.6240  -25.3610    1.2820 C.ar      1    LIG47    0.0000
     14 C11        15.2150  -22.3060    0.4960 C.ar      1    LIG47    0.0000
     15 S1         13.7280  -21.4230    0.6140 S.2       1    LIG47    0.0000
     16 C12        14.6640  -19.9730    0.4850 C.ar      1    LIG47    0.0000
     17 N4         15.9850  -20.1600    0.3660 N.pl3     1    LIG47    0.0000
     18 C13        16.3210  -21.4570    0.3700 C.ar      1    LIG47    0.0000
     19 C14        17.7270  -21.8680    0.2530 C.3       1    LIG47    0.0000
     20 N5         22.3870  -23.5500   -0.3450 N.pl3     1    LIG47    0.0000
     21 C15        23.4730  -24.0130   -1.1480 C.3       1    LIG47    0.0000
     22 C16        23.7430  -22.9930   -2.2670 C.3       1    LIG47    0.0000
     23 N6         23.9000  -21.6910   -1.6940 N.am      1    LIG47    0.0000
     24 C17        22.7970  -21.2360   -0.9000 C.3       1    LIG47    0.0000
     25 C18        22.5210  -22.2480    0.2240 C.3       1    LIG47    0.0000
     26 C19        25.0210  -20.9280   -1.8670 C.2       1    LIG47    0.0000
     27 O1         25.1030  -19.7980   -1.3360 O.2       1    LIG47    0.0000
     28 C20        26.1660  -21.3770   -2.6660 C.3       1    LIG47    0.0000
     29 C21        14.0520  -18.6460    0.5050 C.3       1    LIG47    0.0000
     30 H1         13.0863  -23.9655    0.7656 H         1    LIG47    0.0000
     31 H2         13.2532  -26.4662    0.8161 H         1    LIG47    0.0000
     32 H3         15.4160  -27.4883    0.6117 H         1    LIG47    0.0000
     33 H4         17.2765  -23.8432    0.3137 H         1    LIG47    0.0000
     34 H5         17.6899  -27.4132    0.3706 H         1    LIG47    0.0000
     35 H6         18.7148  -25.6957   -1.9994 H         1    LIG47    0.0000
     36 H7         20.8246  -24.4071   -2.3032 H         1    LIG47    0.0000
     37 H8         21.4040  -24.3467    1.9803 H         1    LIG47    0.0000
     38 H9         19.2940  -25.6352    2.2840 H         1    LIG47    0.0000
     39 H10        16.6665  -19.3924    0.2809 H         1    LIG47    0.0000
     40 H11        18.3197  -20.9568    0.1723 H         1    LIG47    0.0000
     41 H12        17.9704  -22.4313    1.1539 H         1    LIG47    0.0000
     42 H13        17.8056  -22.4833   -0.6433 H         1    LIG47    0.0000
     43 H14        23.1573  -24.9593   -1.5872 H         1    LIG47    0.0000
     44 H15        24.3444  -24.1855   -0.5163 H         1    LIG47    0.0000
     45 H16        22.9457  -22.9674   -3.0098 H         1    LIG47    0.0000
     46 H17        24.6859  -23.2352   -2.7574 H         1    LIG47    0.0000
     47 H18        21.9328  -21.1891   -1.5626 H         1    LIG47    0.0000
     48 H19        23.0163  -20.2396   -0.5162 H         1    LIG47    0.0000
     49 H20        23.3764  -22.2858    0.8985 H         1    LIG47    0.0000
     50 H21        21.6263  -22.0073    0.7981 H         1    LIG47    0.0000
     51 H22        26.9093  -20.5804   -2.6335 H         1    LIG47    0.0000
     52 H23        26.5347  -22.2943   -2.2071 H         1    LIG47    0.0000
     53 H24        25.8004  -21.5490   -3.6783 H         1    LIG47    0.0000
     54 H25        14.8601  -17.9209    0.4085 H         1    LIG47    0.0000
     55 H26        13.3633  -18.5999   -0.3386 H         1    LIG47    0.0000
     56 H27        13.5322  -18.5491    1.4582 H         1    LIG47    0.0000
@<TRIPOS>BOND
     1    1    2 ar
     2    1    6 ar
     3    2    3 ar
     4    3    4 ar
     5    4    5 ar
     6    4    7 2
     7    5    6 ar
     8    6   14 1
     9    7    8 1
    10    8    9 ar
    11    8   13 ar
    12    9   10 ar
    13   10   11 ar
    14   11   12 ar
    15   11   20 1
    16   12   13 ar
    17   14   15 ar
    18   14   18 ar
    19   15   16 ar
    20   16   17 ar
    21   16   29 1
    22   17   18 ar
    23   18   19 1
    24   20   21 1
    25   20   25 1
    26   21   22 1
    27   22   23 1
    28   23   24 1
    29   23   26 am
    30   24   25 1
    31   26   27 2
    32   26   28 1
    33    1   30 1
    34    2   31 1
    35    3   32 1
    36    5   33 1
    37    7   34 1
    38    9   35 1
    39   10   36 1
    40   12   37 1
    41   13   38 1
    42   17   39 1
    43   19   40 1
    44   19   41 1
    45   19   42 1
    46   21   43 1
    47   21   44 1
    48   22   45 1
    49   22   46 1
    50   24   47 1
    51   24   48 1
    52   25   49 1
    53   25   50 1
    54   28   51 1
    55   28   52 1
    56   28   53 1
    57   29   54 1
    58   29   55 1
    59   29   56 1
@<TRIPOS>SUBSTRUCTURE
     1    LIG47    1   GROUP 1   LIG 1
@<TRIPOS>MOLECULE
50579847
   52    54    1     0     0
SMALL
USER_CHARGES


@<TRIPOS>ATOM
      1 C1         -4.4370  -10.9130    0.6990 C.ar      1    LIG48    0.0000
      2 C2         -4.3440  -12.3090    0.7650 C.ar      1    LIG48    0.0000
      3 N1         -3.1390  -12.9160    0.6500 N.pl3     1    LIG48    0.0000
      4 C3         -2.0010  -12.2090    0.4630 C.ar      1    LIG48    0.0000
      5 N2         -2.0830  -10.8550    0.3970 N.pl3     1    LIG48    0.0000
      6 C4         -3.2530  -10.1760    0.5090 C.ar      1    LIG48    0.0000
      7 N3         -0.8330  -12.8870    0.3720 N.pl3     1    LIG48    0.0000
      8 C5          0.3870  -12.3250    0.1950 C.ar      1    LIG48    0.0000
      9 C6          0.6520  -11.4240   -0.8520 C.ar      1    LIG48    0.0000
     10 C7          1.9310  -10.8680   -1.0120 C.ar      1    LIG48    0.0000
     11 C8          2.9630  -11.2000   -0.1060 C.ar      1    LIG48    0.0000
     12 C9          2.7170  -12.1360    0.9280 C.ar      1    LIG48    0.0000
     13 C10         1.4310  -12.6890    1.0630 C.ar      1    LIG48    0.0000
     14 C11        -3.2850   -8.7670    0.4490 C.ar      1    LIG48    0.0000
     15 S1         -4.7710   -7.8920    0.6260 S.2       1    LIG48    0.0000
     16 C12        -3.8560   -6.4350    0.4480 C.ar      1    LIG48    0.0000
     17 N4         -2.5410   -6.6150    0.2670 N.pl3     1    LIG48    0.0000
     18 C13        -2.1950   -7.9090    0.2620 C.ar      1    LIG48    0.0000
     19 C14        -0.7960   -8.3060    0.0650 C.3       1    LIG48    0.0000
     20 N5         -4.4420   -5.2220    0.4920 N.pl3     1    LIG48    0.0000
     21 O1          4.1930  -10.6300   -0.2370 O.2       1    LIG48    0.0000
     22 C15         4.3330   -9.2240   -0.0150 C.2       1    LIG48    0.0000
     23 O2          3.6330  -12.5650    1.8490 O.2       1    LIG48    0.0000
     24 C16         5.0000  -12.1510    1.8810 C.3       1    LIG48    0.0000
     25 O3          2.1150  -10.0030   -2.0460 O.2       1    LIG48    0.0000
     26 C17         3.0380  -10.3420   -3.0840 C.2       1    LIG48    0.0000
     27 C18        -3.7080   -4.0170    0.3440 C.3       1    LIG48    0.0000
     28 C19        -4.6590   -2.8200    0.4470 C.3       1    LIG48    0.0000
     29 H1         -5.4000  -10.4110    0.7922 H         1    LIG48    0.0000
     30 H2         -5.2432  -12.9079    0.9092 H         1    LIG48    0.0000
     31 H3         -3.0876  -13.9432    0.7064 H         1    LIG48    0.0000
     32 H4         -1.2158  -10.3176    0.2552 H         1    LIG48    0.0000
     33 H5         -0.8751  -13.9137    0.4431 H         1    LIG48    0.0000
     34 H6         -0.1439  -11.1547   -1.5463 H         1    LIG48    0.0000
     35 H7          1.2404  -13.4131    1.8551 H         1    LIG48    0.0000
     36 H8         -1.8698   -5.8433    0.1451 H         1    LIG48    0.0000
     37 H9         -0.2174   -7.3891   -0.0475 H         1    LIG48    0.0000
     38 H10        -0.4967   -8.8681    0.9496 H         1    LIG48    0.0000
     39 H11        -0.7626   -8.9194   -0.8354 H         1    LIG48    0.0000
     40 H12        -5.4601   -5.1679    0.6385 H         1    LIG48    0.0000
     41 H13         5.3099   -8.7510   -0.1155 H         1    LIG48    0.0000
     42 H14         3.4628   -8.6255    0.2546 H         1    LIG48    0.0000
     43 H15         5.4680  -12.6616    2.7226 H         1    LIG48    0.0000
     44 H16         5.4445  -12.4455    0.9303 H         1    LIG48    0.0000
     45 H17         5.0023  -11.0688    2.0114 H         1    LIG48    0.0000
     46 H18         3.1951   -9.6583   -3.9183 H         1    LIG48    0.0000
     47 H19         3.5845  -11.2841   -3.0411 H         1    LIG48    0.0000
     48 H20        -3.2713   -4.0437   -0.6543 H         1    LIG48    0.0000
     49 H21        -2.9137   -3.9866    1.0898 H         1    LIG48    0.0000
     50 H22        -4.0540   -1.9212    0.3280 H         1    LIG48    0.0000
     51 H23        -5.3910   -2.9247   -0.3538 H         1    LIG48    0.0000
     52 H24        -5.1254   -2.8673    1.4310 H         1    LIG48    0.0000
@<TRIPOS>BOND
     1    1    2 ar
     2    1    6 ar
     3    2    3 ar
     4    3    4 ar
     5    4    5 ar
     6    4    7 1
     7    5    6 ar
     8    6   14 1
     9    7    8 1
    10    8    9 ar
    11    8   13 ar
    12    9   10 ar
    13   10   11 ar
    14   10   25 1
    15   11   12 ar
    16   11   21 1
    17   12   13 ar
    18   12   23 2
    19   14   15 ar
    20   14   18 ar
    21   15   16 ar
    22   16   17 ar
    23   16   20 1
    24   17   18 ar
    25   18   19 1
    26   20   27 1
    27   21   22 2
    28   23   24 1
    29   25   26 2
    30   27   28 1
    31    1   29 1
    32    2   30 1
    33    3   31 1
    34    5   32 1
    35    7   33 1
    36    9   34 1
    37   13   35 1
    38   17   36 1
    39   19   37 1
    40   19   38 1
    41   19   39 1
    42   20   40 1
    43   22   41 1
    44   22   42 1
    45   24   43 1
    46   24   44 1
    47   24   45 1
    48   26   46 1
    49   26   47 1
    50   27   48 1
    51   27   49 1
    52   28   50 1
    53   28   51 1
    54   28   52 1
@<TRIPOS>SUBSTRUCTURE
     1    LIG48    1   GROUP 1   LIG 1
@<TRIPOS>MOLECULE
50579842
   55    58    1     0     0
SMALL
USER_CHARGES


@<TRIPOS>ATOM
      1 C1         -5.3350  -24.0280    0.6780 C.ar      1    LIG49    0.0000
      2 C2         -5.2350  -25.4260    0.7040 C.ar      1    LIG49    0.0000
      3 N1         -4.0260  -26.0260    0.5890 N.pl3     1    LIG49    0.0000
      4 C3         -2.8900  -25.3060    0.4460 C.ar      1    LIG49    0.0000
      5 N2         -2.9790  -23.9530    0.4220 N.pl3     1    LIG49    0.0000
      6 C4         -4.1510  -23.2820    0.5320 C.ar      1    LIG49    0.0000
      7 N3         -1.7060  -25.9500    0.3310 N.pl3     1    LIG49    0.0000
      8 C5         -0.5310  -25.3020    0.1670 C.ar      1    LIG49    0.0000
      9 C6         -0.0860  -24.9640   -1.1240 C.ar      1    LIG49    0.0000
     10 C7          1.1080  -24.2420   -1.2920 C.ar      1    LIG49    0.0000
     11 C8          1.8710  -23.8560   -0.1720 C.ar      1    LIG49    0.0000
     12 C9          1.4310  -24.2120    1.1180 C.ar      1    LIG49    0.0000
     13 C10         0.2370  -24.9340    1.2880 C.ar      1    LIG49    0.0000
     14 C11        -4.1750  -21.8720    0.4990 C.ar      1    LIG49    0.0000
     15 S1         -5.6630  -20.9910    0.6140 S.2       1    LIG49    0.0000
     16 C12        -4.7250  -19.5440    0.4820 C.ar      1    LIG49    0.0000
     17 N4         -3.4050  -19.7250    0.3670 N.pl3     1    LIG49    0.0000
     18 C13        -3.0680  -21.0220    0.3750 C.ar      1    LIG49    0.0000
     19 C14        -1.6620  -21.4320    0.2650 C.3       1    LIG49    0.0000
     20 N5         -5.2760  -18.3250    0.4930 N.pl3     1    LIG49    0.0000
     21 N6          3.0070  -23.1290   -0.3340 N.pl3     1    LIG49    0.0000
     22 C15         4.0920  -23.5920   -1.1400 C.3       1    LIG49    0.0000
     23 C16         4.3630  -22.5690   -2.2560 C.3       1    LIG49    0.0000
     24 N7          4.5220  -21.2670   -1.6790 N.am      1    LIG49    0.0000
     25 C17         3.4200  -20.8140   -0.8840 C.3       1    LIG49    0.0000
     26 C18         3.1460  -21.8280    0.2390 C.3       1    LIG49    0.0000
     27 C19         5.6430  -20.5060   -1.8510 C.2       1    LIG49    0.0000
     28 O1          5.7280  -19.3780   -1.3160 O.2       1    LIG49    0.0000
     29 C20         6.7860  -20.9530   -2.6550 C.3       1    LIG49    0.0000
     30 H1         -6.3020  -23.5332    0.7683 H         1    LIG49    0.0000
     31 H2         -6.1335  -26.0326    0.8172 H         1    LIG49    0.0000
     32 H3         -3.9705  -27.0543    0.6110 H         1    LIG49    0.0000
     33 H4         -2.1117  -23.4078    0.3147 H         1    LIG49    0.0000
     34 H5         -1.6994  -26.9792    0.3701 H         1    LIG49    0.0000
     35 H6         -0.6683  -25.2626   -1.9957 H         1    LIG49    0.0000
     36 H7          1.4458  -23.9791   -2.2944 H         1    LIG49    0.0000
     37 H8          2.0199  -23.9259    1.9895 H         1    LIG49    0.0000
     38 H9         -0.0947  -25.2093    2.2891 H         1    LIG49    0.0000
     39 H10        -2.7253  -18.9558    0.2820 H         1    LIG49    0.0000
     40 H11        -1.0697  -20.5206    0.1841 H         1    LIG49    0.0000
     41 H12        -1.4219  -21.9925    1.1685 H         1    LIG49    0.0000
     42 H13        -1.5792  -22.0498   -0.6292 H         1    LIG49    0.0000
     43 H14        -4.6793  -17.4894    0.4118 H         1    LIG49    0.0000
     44 H15        -6.2969  -18.2221    0.5827 H         1    LIG49    0.0000
     45 H16         3.7745  -24.5365   -1.5819 H         1    LIG49    0.0000
     46 H17         4.9638  -23.7678   -0.5098 H         1    LIG49    0.0000
     47 H18         3.5647  -22.5407   -2.9976 H         1    LIG49    0.0000
     48 H19         5.3050  -22.8116   -2.7478 H         1    LIG49    0.0000
     49 H20         2.5554  -20.7673   -1.5461 H         1    LIG49    0.0000
     50 H21         3.6385  -19.8176   -0.4998 H         1    LIG49    0.0000
     51 H22         4.0032  -21.8689    0.9110 H         1    LIG49    0.0000
     52 H23         2.2540  -21.5866    0.8170 H         1    LIG49    0.0000
     53 H24         7.5306  -20.1577   -2.6202 H         1    LIG49    0.0000
     54 H25         7.1544  -21.8731   -2.2013 H         1    LIG49    0.0000
     55 H26         6.4179  -21.1195   -3.6674 H         1    LIG49    0.0000
@<TRIPOS>BOND
     1    1    2 ar
     2    1    6 ar
     3    2    3 ar
     4    3    4 ar
     5    4    5 ar
     6    4    7 1
     7    5    6 ar
     8    6   14 1
     9    7    8 1
    10    8    9 ar
    11    8   13 ar
    12    9   10 ar
    13   10   11 ar
    14   11   12 ar
    15   11   21 1
    16   12   13 ar
    17   14   15 ar
    18   14   18 ar
    19   15   16 ar
    20   16   17 ar
    21   16   20 1
    22   17   18 ar
    23   18   19 1
    24   21   22 1
    25   21   26 1
    26   22   23 1
    27   23   24 1
    28   24   25 1
    29   24   27 am
    30   25   26 1
    31   27   28 2
    32   27   29 1
    33    1   30 1
    34    2   31 1
    35    3   32 1
    36    5   33 1
    37    7   34 1
    38    9   35 1
    39   10   36 1
    40   12   37 1
    41   13   38 1
    42   17   39 1
    43   19   40 1
    44   19   41 1
    45   19   42 1
    46   20   43 1
    47   20   44 1
    48   22   45 1
    49   22   46 1
    50   23   47 1
    51   23   48 1
    52   25   49 1
    53   25   50 1
    54   26   51 1
    55   26   52 1
    56   29   53 1
    57   29   54 1
    58   29   55 1
@<TRIPOS>SUBSTRUCTURE
     1    LIG49    1   GROUP 1   LIG 1
@<TRIPOS>MOLECULE
184849
   32    35    1     0     0
SMALL
USER_CHARGES


@<TRIPOS>ATOM
      1 C1         -1.6860    1.7190    0.4100 C.ar      1    LIG50    0.0000
      2 C2         -2.6170    4.4080    0.4170 C.ar      1    LIG50    0.0000
      3 C3         -3.5270    3.3350    0.3230 C.ar      1    LIG50    0.0000
      4 C4         -3.0650    2.0000    0.3190 C.ar      1    LIG50    0.0000
      5 C5         -1.2460    4.1130    0.5070 C.ar      1    LIG50    0.0000
      6 C6         -0.1310    4.9380    0.6080 C.ar      1    LIG50    0.0000
      7 C7         -0.7930    2.7970    0.5040 C.ar      1    LIG50    0.0000
      8 C8          0.9800    4.0830    0.6680 C.ar      1    LIG50    0.0000
      9 N1          0.5430    2.8080    0.6000 N.pl3     1    LIG50    0.0000
     10 C9          2.3990    4.4860    0.7690 C.3       1    LIG50    0.0000
     11 C10         3.2640    3.4340    1.3390 C.2       1    LIG50    0.0000
     12 O1          3.1360    2.9650    2.4910 O.2       1    LIG50    0.0000
     13 N2          4.2140    3.0270    0.4820 N.am      1    LIG50    0.0000
     14 C11         3.0440    4.6120   -0.5460 C.ar      1    LIG50    0.0000
     15 C12         4.1080    3.7160   -0.6540 C.ar      1    LIG50    0.0000
     16 C13         4.8880    3.6400   -1.8180 C.ar      1    LIG50    0.0000
     17 C14         4.5760    4.4990   -2.8900 C.ar      1    LIG50    0.0000
     18 C15         3.5070    5.4140   -2.7860 C.ar      1    LIG50    0.0000
     19 C16         2.7340    5.4780   -1.6100 C.ar      1    LIG50    0.0000
     20 N3         -0.1790    6.2530    0.6330 N.2       1    LIG50    0.0000
     21 O2          0.7570    6.9440    0.7130 O.2       1    LIG50    0.0000
     22 H1         -1.3234    0.6911    0.4074 H         1    LIG50    0.0000
     23 H2         -2.9680    5.4399    0.4198 H         1    LIG50    0.0000
     24 H3         -4.5958    3.5373    0.2528 H         1    LIG50    0.0000
     25 H4         -3.7800    1.1806    0.2450 H         1    LIG50    0.0000
     26 H5          1.1443    1.9719    0.6190 H         1    LIG50    0.0000
     27 H6          2.3329    5.4019    1.3563 H         1    LIG50    0.0000
     28 H7          4.9149    2.2967    0.6726 H         1    LIG50    0.0000
     29 H8          5.7150    2.9337   -1.8909 H         1    LIG50    0.0000
     30 H9          5.1646    4.4565   -3.8064 H         1    LIG50    0.0000
     31 H10         3.2777    6.0758   -3.6212 H         1    LIG50    0.0000
     32 H11         1.9099    6.1864   -1.5261 H         1    LIG50    0.0000
@<TRIPOS>BOND
     1    1    4 ar
     2    1    7 ar
     3    2    3 ar
     4    2    5 ar
     5    3    4 ar
     6    5    6 ar
     7    5    7 ar
     8    6    8 ar
     9    6   20 2
    10    7    9 ar
    11    8    9 ar
    12    8   10 1
    13   10   11 1
    14   10   14 1
    15   11   12 2
    16   11   13 ar
    17   13   15 1
    18   14   15 ar
    19   14   19 ar
    20   15   16 ar
    21   16   17 ar
    22   17   18 ar
    23   18   19 ar
    24   20   21 2
    25    1   22 1
    26    2   23 1
    27    3   24 1
    28    4   25 1
    29    9   26 1
    30   10   27 1
    31   13   28 1
    32   16   29 1
    33   17   30 1
    34   18   31 1
    35   19   32 1
@<TRIPOS>SUBSTRUCTURE
     1    LIG50    1   GROUP 1   LIG 1
@<TRIPOS>MOLECULE
184850
   31    34    1     0     0
SMALL
USER_CHARGES


@<TRIPOS>ATOM
      1 C1          0.9720    3.0260   -0.4480 C.2       1    LIG51    0.0000
      2 C2          1.2560    1.6310   -0.0920 C.3       1    LIG51    0.0000
      3 O1          1.3420    3.4510   -1.5640 O.2       1    LIG51    0.0000
      4 N1          0.3490    3.9000    0.3770 N.am      1    LIG51    0.0000
      5 C3         -0.7720    2.4680    2.0690 C.2       1    LIG51    0.0000
      6 C4         -0.1470    3.6690    1.6270 C.2       1    LIG51    0.0000
      7 C5         -0.0970    4.7800    2.4940 C.ar      1    LIG51    0.0000
      8 C6         -0.6450    4.7140    3.7840 C.ar      1    LIG51    0.0000
      9 C7         -1.2670    3.5360    4.2190 C.ar      1    LIG51    0.0000
     10 C8         -1.3350    2.4250    3.3650 C.ar      1    LIG51    0.0000
     11 C9          0.0170    0.9250    0.2570 C.2       1    LIG51    0.0000
     12 C10        -0.8750    1.3120    1.2610 C.2       1    LIG51    0.0000
     13 N2         -1.8490    0.3820    1.3430 N.pl3     1    LIG51    0.0000
     14 C11        -0.4760   -0.2610   -0.2790 C.ar      1    LIG51    0.0000
     15 C12        -1.6380   -0.5690    0.4220 C.ar      1    LIG51    0.0000
     16 C13        -0.7380   -2.2600   -1.6160 C.ar      1    LIG51    0.0000
     17 C14        -0.0010   -1.0970   -1.3040 C.ar      1    LIG51    0.0000
     18 C15        -2.3800   -1.7220    0.1260 C.ar      1    LIG51    0.0000
     19 C16        -1.9210   -2.5690   -0.9030 C.ar      1    LIG51    0.0000
     20 Br1        -0.1480   -3.3930   -2.9690 Br        1    LIG51    0.0000
     21 H1          1.9259    1.6153    0.7677 H         1    LIG51    0.0000
     22 H2          1.7172    1.1351   -0.9461 H         1    LIG51    0.0000
     23 H3          0.2353    4.8581    0.0164 H         1    LIG51    0.0000
     24 H4          0.3742    5.7034    2.1572 H         1    LIG51    0.0000
     25 H5         -0.5870    5.5775    4.4466 H         1    LIG51    0.0000
     26 H6         -1.6972    3.4830    5.2191 H         1    LIG51    0.0000
     27 H7         -1.8292    1.5152    3.7058 H         1    LIG51    0.0000
     28 H8         -2.6335    0.3999    2.0102 H         1    LIG51    0.0000
     29 H9          0.9136   -0.8535   -1.8446 H         1    LIG51    0.0000
     30 H10        -3.2897   -1.9573    0.6784 H         1    LIG51    0.0000
     31 H11        -2.4820   -3.4698   -1.1518 H         1    LIG51    0.0000
@<TRIPOS>BOND
     1    1    2 1
     2    1    3 2
     3    1    4 ar
     4    2   11 1
     5    4    6 1
     6    5    6 ar
     7    5   10 ar
     8    5   12 1
     9    6    7 ar
    10    7    8 ar
    11    8    9 ar
    12    9   10 ar
    13   11   12 ar
    14   11   14 ar
    15   12   13 ar
    16   13   15 ar
    17   14   15 ar
    18   14   17 ar
    19   15   18 ar
    20   16   17 ar
    21   16   19 ar
    22   16   20 2
    23   18   19 ar
    24    2   21 1
    25    2   22 1
    26    4   23 1
    27    7   24 1
    28    8   25 1
    29    9   26 1
    30   10   27 1
    31   13   28 1
    32   17   29 1
    33   18   30 1
    34   19   31 1
@<TRIPOS>SUBSTRUCTURE
     1    LIG51    1   GROUP 1   LIG 1
@<TRIPOS>MOLECULE
50077217
   55    58    1     0     0
SMALL
USER_CHARGES


@<TRIPOS>ATOM
      1 C1         22.2990   -2.8420    0.4080 C.ar      1    LIG52    0.0000
      2 C2         22.5550   -4.0190   -0.3280 C.ar      1    LIG52    0.0000
      3 C3         23.2740   -5.0790    0.2440 C.ar      1    LIG52    0.0000
      4 C4         22.7670   -2.7580    1.7390 C.ar      1    LIG52    0.0000
      5 C5         23.4850   -3.8190    2.3390 C.ar      1    LIG52    0.0000
      6 C6         23.7390   -4.9810    1.5650 C.ar      1    LIG52    0.0000
      7 N1         24.4390   -6.0110    2.0970 N.pl3     1    LIG52    0.0000
      8 C7         24.9320   -6.0120    3.3610 C.ar      1    LIG52    0.0000
      9 C8         24.7040   -4.8820    4.1700 C.ar      1    LIG52    0.0000
     10 C9         23.9770   -3.7820    3.6700 C.ar      1    LIG52    0.0000
     11 C10        21.5580   -1.7730   -0.1660 C.ar      1    LIG52    0.0000
     12 C11        23.7770   -2.7110    4.5160 C.2       1    LIG52    0.0000
     13 O1         22.6670   -2.2330    4.6880 O.co2     1    LIG52   -0.5000
     14 O2         24.7760   -2.2100    5.2200 O.co2     1    LIG52   -0.5000
     15 C12        25.6490   -7.1360    3.8190 C.2       1    LIG52    0.0000
     16 N2         25.9150   -8.1480    2.9620 N.am      1    LIG52    0.0000
     17 O3         26.0530   -7.2080    5.0030 O.2       1    LIG52    0.0000
     18 C13        26.6300   -9.3280    3.3120 C.3       1    LIG52    0.0000
     19 C14        26.9610  -10.0260    2.0930 C.2       1    LIG52    0.0000
     20 C15        25.7790  -10.2230    4.2470 C.3       1    LIG52    0.0000
     21 C16        26.4690  -11.4710    4.6400 C.ar      1    LIG52    0.0000
     22 O4         25.9760  -10.4580    1.3050 O.2       1    LIG52    0.0000
     23 O5         28.1350  -10.2180    1.8090 O.co2     1    LIG52    0.0000
     24 C17        26.2910  -11.2040    0.1290 C.2       1    LIG52    0.0000
     25 C18        25.9750  -12.7250    4.2270 C.ar      1    LIG52    0.0000
     26 C19        26.6380  -13.9080    4.5970 C.ar      1    LIG52    0.0000
     27 C20        27.8000  -13.8470    5.3850 C.ar      1    LIG52    0.0000
     28 C21        28.2970  -12.6000    5.8030 C.ar      1    LIG52    0.0000
     29 C22        27.6330  -11.4180    5.4330 C.ar      1    LIG52    0.0000
     30 O6         28.4320  -14.9880    5.7380 O.2       1    LIG52    0.0000
     31 C23        20.3670   -1.3700    0.4840 C.ar      1    LIG52    0.0000
     32 C24        19.5720   -0.3360   -0.0340 C.ar      1    LIG52    0.0000
     33 C25        19.9570    0.3180   -1.2130 C.ar      1    LIG52    0.0000
     34 C26        21.1390   -0.0580   -1.8680 C.ar      1    LIG52    0.0000
     35 C27        21.9460   -1.0940   -1.3550 C.ar      1    LIG52    0.0000
     36 Cl1        23.3840   -1.4260   -2.1980 Cl        1    LIG52    0.0000
     37 H1         22.1902   -4.1051   -1.3515 H         1    LIG52    0.0000
     38 H2         23.4718   -5.9794   -0.3376 H         1    LIG52    0.0000
     39 H3         22.5701   -1.8548    2.3165 H         1    LIG52    0.0000
     40 H4         24.6065   -6.8400    1.5091 H         1    LIG52    0.0000
     41 H5         25.0917   -4.8575    5.1884 H         1    LIG52    0.0000
     42 H6         25.5782   -8.0590    1.9927 H         1    LIG52    0.0000
     43 H7         27.5413   -9.0704    3.8516 H         1    LIG52    0.0000
     44 H8         24.8526  -10.5019    3.7449 H         1    LIG52    0.0000
     45 H9         25.6136   -9.6709    5.1721 H         1    LIG52    0.0000
     46 H10        25.4916  -11.5608   -0.5205 H         1    LIG52    0.0000
     47 H11        27.3308  -11.4167   -0.1193 H         1    LIG52    0.0000
     48 H12        25.0733  -12.7777    3.6169 H         1    LIG52    0.0000
     49 H13        26.2504  -14.8737    4.2724 H         1    LIG52    0.0000
     50 H14        29.1980  -12.5500    6.4145 H         1    LIG52    0.0000
     51 H15        28.0208  -10.4537    5.7615 H         1    LIG52    0.0000
     52 H16        20.0621   -1.8713    1.4026 H         1    LIG52    0.0000
     53 H17        18.6566   -0.0418    0.4794 H         1    LIG52    0.0000
     54 H18        19.3384    1.1178   -1.6201 H         1    LIG52    0.0000
     55 H19        21.4364    0.4556   -2.7822 H         1    LIG52    0.0000
@<TRIPOS>BOND
     1    1    2 ar
     2    1    4 ar
     3    1   11 1
     4    2    3 ar
     5    3    6 ar
     6    4    5 ar
     7    5    6 ar
     8    5   10 ar
     9    6    7 ar
    10    7    8 ar
    11    8    9 ar
    12    8   15 1
    13    9   10 ar
    14   10   12 1
    15   11   31 ar
    16   11   35 ar
    17   12   13 am
    18   12   14 am
    19   15   16 am
    20   15   17 2
    21   16   18 1
    22   18   19 1
    23   18   20 1
    24   19   22 1
    25   19   23 2
    26   20   21 1
    27   21   25 ar
    28   21   29 ar
    29   22   24 2
    30   25   26 ar
    31   26   27 ar
    32   27   28 ar
    33   27   30 2
    34   28   29 ar
    35   31   32 ar
    36   32   33 ar
    37   33   34 ar
    38   34   35 ar
    39   35   36 2
    40    2   37 1
    41    3   38 1
    42    4   39 1
    43    7   40 1
    44    9   41 1
    45   16   42 1
    46   18   43 1
    47   20   44 1
    48   20   45 1
    49   24   46 1
    50   24   47 1
    51   25   48 1
    52   26   49 1
    53   28   50 1
    54   29   51 1
    55   31   52 1
    56   32   53 1
    57   33   54 1
    58   34   55 1
@<TRIPOS>SUBSTRUCTURE
     1    LIG52    1   GROUP 1   LIG 1
@<TRIPOS>MOLECULE
50077214
   52    55    1     0     0
SMALL
USER_CHARGES


@<TRIPOS>ATOM
      1 C1          4.0600   -1.8610    0.6810 C.ar      1    LIG53    0.0000
      2 C2          4.2750   -2.7320   -0.4060 C.ar      1    LIG53    0.0000
      3 C3          3.6360   -3.9770   -0.4650 C.ar      1    LIG53    0.0000
      4 C4          3.1790   -2.2770    1.7080 C.ar      1    LIG53    0.0000
      5 C5          2.5130   -3.5290    1.6820 C.ar      1    LIG53    0.0000
      6 C6          2.7690   -4.3710    0.5650 C.ar      1    LIG53    0.0000
      7 N1          2.1770   -5.5830    0.4670 N.pl3     1    LIG53    0.0000
      8 C7          1.3220   -6.0750    1.3940 C.ar      1    LIG53    0.0000
      9 C8          1.0310   -5.2830    2.5180 C.ar      1    LIG53    0.0000
     10 C9          1.6140   -4.0030    2.6850 C.ar      1    LIG53    0.0000
     11 C10         4.7310   -0.6100    0.7020 C.ar      1    LIG53    0.0000
     12 C11         4.6340    0.3660    1.6980 C.ar      1    LIG53    0.0000
     13 C12         5.4140    1.4830    1.4410 C.ar      1    LIG53    0.0000
     14 C13         6.1080    1.3630    0.2480 C.ar      1    LIG53    0.0000
     15 S1          5.8070   -0.1300   -0.5740 S.2       1    LIG53    0.0000
     16 C14         1.2400   -3.2910    3.8630 C.2       1    LIG53    0.0000
     17 O1          1.6560   -2.1500    4.1570 O.co2     1    LIG53   -0.5000
     18 O2          0.3810   -3.8200    4.7650 O.co2     1    LIG53   -0.5000
     19 C15         0.7500   -7.3490    1.2000 C.2       1    LIG53    0.0000
     20 N2          1.0630   -8.0550    0.0890 N.am      1    LIG53    0.0000
     21 O3         -0.0550   -7.8270    2.0320 O.2       1    LIG53    0.0000
     22 C16         0.5110   -9.3280   -0.2430 C.3       1    LIG53    0.0000
     23 C17         1.5870  -10.2690   -0.4240 C.2       1    LIG53    0.0000
     24 C18        -0.3160   -9.2130   -1.5440 C.3       1    LIG53    0.0000
     25 C19        -1.4340   -8.2540   -1.4180 C.ar      1    LIG53    0.0000
     26 O4          2.5160  -10.0220   -1.3480 O.2       1    LIG53    0.0000
     27 O5          1.6290  -11.2780    0.2660 O.co2     1    LIG53    0.0000
     28 C20         3.5900  -10.9460   -1.5330 C.2       1    LIG53    0.0000
     29 C21        -2.4960   -8.5120   -0.5260 C.ar      1    LIG53    0.0000
     30 C22        -3.5490   -7.5930   -0.3880 C.ar      1    LIG53    0.0000
     31 C23        -3.5520   -6.4070   -1.1400 C.ar      1    LIG53    0.0000
     32 C24        -2.5000   -6.1430   -2.0350 C.ar      1    LIG53    0.0000
     33 C25        -1.4470   -7.0630   -2.1730 C.ar      1    LIG53    0.0000
     34 O6         -4.5640   -5.5230   -0.9970 O.2       1    LIG53    0.0000
     35 H1          4.9468   -2.4331   -1.2106 H         1    LIG53    0.0000
     36 H2          3.8125   -4.6402   -1.3118 H         1    LIG53    0.0000
     37 H3          3.0057   -1.6090    2.5517 H         1    LIG53    0.0000
     38 H4          2.3881   -6.1630   -0.3575 H         1    LIG53    0.0000
     39 H5          0.3440   -5.6608    3.2752 H         1    LIG53    0.0000
     40 H6          4.0096    0.2598    2.5851 H         1    LIG53    0.0000
     41 H7          5.4740    2.3506    2.0981 H         1    LIG53    0.0000
     42 H8          6.7776    2.1330   -0.1352 H         1    LIG53    0.0000
     43 H9          1.7474   -7.6449   -0.5624 H         1    LIG53    0.0000
     44 H10        -0.1428   -9.6704    0.5591 H         1    LIG53    0.0000
     45 H11        -0.7347  -10.1849   -1.8050 H         1    LIG53    0.0000
     46 H12         0.3364   -8.8190   -2.3232 H         1    LIG53    0.0000
     47 H13         4.3532  -10.7509   -2.2864 H         1    LIG53    0.0000
     48 H14         3.6462  -11.8460   -0.9207 H         1    LIG53    0.0000
     49 H15        -2.4993   -9.4310    0.0602 H         1    LIG53    0.0000
     50 H16        -4.3652   -7.8006    0.3039 H         1    LIG53    0.0000
     51 H17        -2.5014   -5.2245   -2.6218 H         1    LIG53    0.0000
     52 H18        -0.6342   -6.8546   -2.8687 H         1    LIG53    0.0000
@<TRIPOS>BOND
     1    1    2 ar
     2    1    4 ar
     3    1   11 1
     4    2    3 ar
     5    3    6 ar
     6    4    5 ar
     7    5    6 ar
     8    5   10 ar
     9    6    7 ar
    10    7    8 ar
    11    8    9 ar
    12    8   19 1
    13    9   10 ar
    14   10   16 1
    15   11   12 ar
    16   11   15 ar
    17   12   13 ar
    18   13   14 ar
    19   14   15 ar
    20   16   17 am
    21   16   18 am
    22   19   20 am
    23   19   21 2
    24   20   22 1
    25   22   23 1
    26   22   24 1
    27   23   26 1
    28   23   27 2
    29   24   25 1
    30   25   29 ar
    31   25   33 ar
    32   26   28 2
    33   29   30 ar
    34   30   31 ar
    35   31   32 ar
    36   31   34 2
    37   32   33 ar
    38    2   35 1
    39    3   36 1
    40    4   37 1
    41    7   38 1
    42    9   39 1
    43   12   40 1
    44   13   41 1
    45   14   42 1
    46   20   43 1
    47   22   44 1
    48   24   45 1
    49   24   46 1
    50   28   47 1
    51   28   48 1
    52   29   49 1
    53   30   50 1
    54   32   51 1
    55   33   52 1
@<TRIPOS>SUBSTRUCTURE
     1    LIG53    1   GROUP 1   LIG 1
@<TRIPOS>MOLECULE
50077219
   55    58    1     0     0
SMALL
USER_CHARGES


@<TRIPOS>ATOM
      1 C1          3.8550   -9.5170    0.4600 C.ar      1    LIG54    0.0000
      2 C2          3.8780  -10.7430   -0.2460 C.ar      1    LIG54    0.0000
      3 C3          4.1270  -11.9570    0.4120 C.ar      1    LIG54    0.0000
      4 C4          4.0860   -9.5550    1.8560 C.ar      1    LIG54    0.0000
      5 C5          4.3300  -10.7660    2.5450 C.ar      1    LIG54    0.0000
      6 C6          4.3560  -11.9700    1.7960 C.ar      1    LIG54    0.0000
      7 N1          4.6100  -13.1490    2.4130 N.pl3     1    LIG54    0.0000
      8 C7          4.8530  -13.2650    3.7430 C.ar      1    LIG54    0.0000
      9 C8          4.8360  -12.0980    4.5310 C.ar      1    LIG54    0.0000
     10 C9          4.5680  -10.8440    3.9420 C.ar      1    LIG54    0.0000
     11 C10         3.6090   -8.2820   -0.2160 C.ar      1    LIG54    0.0000
     12 C11         4.5450   -9.7420    4.7720 C.2       1    LIG54    0.0000
     13 O1          3.6200   -8.9460    4.7500 O.co2     1    LIG54   -0.5000
     14 O2          5.4950   -9.5520    5.6710 O.co2     1    LIG54   -0.5000
     15 C12         5.1120  -14.5390    4.2890 C.2       1    LIG54    0.0000
     16 N2          5.1090  -15.6200    3.4750 N.am      1    LIG54    0.0000
     17 O3          5.3330  -14.6830    5.5140 O.2       1    LIG54    0.0000
     18 C13         5.3420  -16.9610    3.9050 C.3       1    LIG54    0.0000
     19 C14         6.4460  -17.5020    3.1520 C.2       1    LIG54    0.0000
     20 C15         4.0770  -17.8160    3.6670 C.3       1    LIG54    0.0000
     21 C16         2.9170  -17.3400    4.4500 C.ar      1    LIG54    0.0000
     22 O4          6.3740  -17.5250    1.8210 O.2       1    LIG54    0.0000
     23 O5          7.4280  -17.9280    3.7440 O.co2     1    LIG54    0.0000
     24 C17         7.4710  -18.0370    1.0630 C.2       1    LIG54    0.0000
     25 C18         2.9410  -17.3920    5.8580 C.ar      1    LIG54    0.0000
     26 C19         1.8440  -16.9340    6.6080 C.ar      1    LIG54    0.0000
     27 C20         0.7110  -16.4210    5.9550 C.ar      1    LIG54    0.0000
     28 C21         0.6770  -16.3670    4.5510 C.ar      1    LIG54    0.0000
     29 C22         1.7750  -16.8260    3.8020 C.ar      1    LIG54    0.0000
     30 O6         -0.3400  -15.9820    6.6810 O.2       1    LIG54    0.0000
     31 C23         2.8910   -7.2340    0.4080 C.ar      1    LIG54    0.0000
     32 C24         2.6480   -6.0190   -0.2550 C.ar      1    LIG54    0.0000
     33 C25         3.1210   -5.8220   -1.5640 C.ar      1    LIG54    0.0000
     34 C26         3.8370   -6.8490   -2.2020 C.ar      1    LIG54    0.0000
     35 C27         4.0770   -8.0620   -1.5350 C.ar      1    LIG54    0.0000
     36 Cl1         2.8290   -4.3620   -2.3660 Cl        1    LIG54    0.0000
     37 H1          3.6989  -10.7444   -1.3212 H         1    LIG54    0.0000
     38 H2          4.1425  -12.8896   -0.1520 H         1    LIG54    0.0000
     39 H3          4.0755   -8.6211    2.4181 H         1    LIG54    0.0000
     40 H4          4.6192  -14.0052    1.8406 H         1    LIG54    0.0000
     41 H5          5.0309  -12.1637    5.6014 H         1    LIG54    0.0000
     42 H6          4.9255  -15.4640    2.4736 H         1    LIG54    0.0000
     43 H7          5.5773  -16.9729    4.9692 H         1    LIG54    0.0000
     44 H8          4.2707  -18.8506    3.9500 H         1    LIG54    0.0000
     45 H9          3.7971  -17.7159    2.6183 H         1    LIG54    0.0000
     46 H10         7.4184  -18.0586   -0.0255 H         1    LIG54    0.0000
     47 H11         8.3608  -18.4062    1.5731 H         1    LIG54    0.0000
     48 H12         3.8171  -17.7905    6.3695 H         1    LIG54    0.0000
     49 H13         1.8725  -16.9769    7.6968 H         1    LIG54    0.0000
     50 H14        -0.2011  -15.9691    4.0424 H         1    LIG54    0.0000
     51 H15         1.7431  -16.7842    2.7133 H         1    LIG54    0.0000
     52 H16         2.5190   -7.3721    1.4232 H         1    LIG54    0.0000
     53 H17         2.0915   -5.2275    0.2469 H         1    LIG54    0.0000
     54 H18         4.2071   -6.7042   -3.2170 H         1    LIG54    0.0000
     55 H19         4.6343   -8.8494   -2.0424 H         1    LIG54    0.0000
@<TRIPOS>BOND
     1    1    2 ar
     2    1    4 ar
     3    1   11 1
     4    2    3 ar
     5    3    6 ar
     6    4    5 ar
     7    5    6 ar
     8    5   10 ar
     9    6    7 ar
    10    7    8 ar
    11    8    9 ar
    12    8   15 1
    13    9   10 ar
    14   10   12 1
    15   11   31 ar
    16   11   35 ar
    17   12   13 am
    18   12   14 am
    19   15   16 am
    20   15   17 2
    21   16   18 1
    22   18   19 1
    23   18   20 1
    24   19   22 1
    25   19   23 2
    26   20   21 1
    27   21   25 ar
    28   21   29 ar
    29   22   24 2
    30   25   26 ar
    31   26   27 ar
    32   27   28 ar
    33   27   30 2
    34   28   29 ar
    35   31   32 ar
    36   32   33 ar
    37   33   34 ar
    38   33   36 2
    39   34   35 ar
    40    2   37 1
    41    3   38 1
    42    4   39 1
    43    7   40 1
    44    9   41 1
    45   16   42 1
    46   18   43 1
    47   20   44 1
    48   20   45 1
    49   24   46 1
    50   24   47 1
    51   25   48 1
    52   26   49 1
    53   28   50 1
    54   29   51 1
    55   31   52 1
    56   32   53 1
    57   34   54 1
    58   35   55 1
@<TRIPOS>SUBSTRUCTURE
     1    LIG54    1   GROUP 1   LIG 1
@<TRIPOS>MOLECULE
50579845
   50    53    1     0     0
SMALL
USER_CHARGES


@<TRIPOS>ATOM
      1 C1         11.9200  -11.3150    0.6550 C.ar      1    LIG55    0.0000
      2 C2         12.0210  -12.7130    0.6350 C.ar      1    LIG55    0.0000
      3 N1         13.2290  -13.3070    0.4830 N.pl3     1    LIG55    0.0000
      4 C3         14.3630  -12.5820    0.3470 C.ar      1    LIG55    0.0000
      5 N2         14.2710  -11.2290    0.3650 N.pl3     1    LIG55    0.0000
      6 C4         13.1000  -10.5630    0.5130 C.ar      1    LIG55    0.0000
      7 N3         15.5470  -13.2180    0.1980 N.pl3     1    LIG55    0.0000
      8 C5         16.7190  -12.5580    0.0560 C.ar      1    LIG55    0.0000
      9 C6         17.4820  -12.2240    1.1900 C.ar      1    LIG55    0.0000
     10 C7         18.6680  -11.4820    1.0480 C.ar      1    LIG55    0.0000
     11 C8         19.1030  -11.0720   -0.2280 C.ar      1    LIG55    0.0000
     12 C9         18.3460  -11.4260   -1.3620 C.ar      1    LIG55    0.0000
     13 C10        17.1600  -12.1680   -1.2220 C.ar      1    LIG55    0.0000
     14 C11        13.0750   -9.1530    0.5220 C.ar      1    LIG55    0.0000
     15 S1         11.5910   -8.2770    0.7120 S.2       1    LIG55    0.0000
     16 C12        12.5210   -6.8220    0.6010 C.ar      1    LIG55    0.0000
     17 N4         13.8370   -7.0020    0.4350 N.pl3     1    LIG55    0.0000
     18 C13        14.1750   -8.2970    0.3870 C.ar      1    LIG55    0.0000
     19 C14        15.5770   -8.7010    0.2090 C.3       1    LIG55    0.0000
     20 C15        11.9070   -5.4980    0.6830 C.3       1    LIG55    0.0000
     21 N5         20.2290  -10.3220   -0.3600 N.pl3     1    LIG55    0.0000
     22 C16        21.3130  -10.7290   -1.1950 C.3       1    LIG55    0.0000
     23 C17        21.5550   -9.6450   -2.2570 C.3       1    LIG55    0.0000
     24 O1         21.6970   -8.3760   -1.6180 O.3       1    LIG55    0.0000
     25 C18        20.6080   -7.9790   -0.7840 C.3       1    LIG55    0.0000
     26 C19        20.3570   -9.0540    0.2850 C.3       1    LIG55    0.0000
     27 H1         10.9542  -10.8246    0.7772 H         1    LIG55    0.0000
     28 H2         11.1248  -13.3240    0.7421 H         1    LIG55    0.0000
     29 H3         13.2854  -14.3354    0.4707 H         1    LIG55    0.0000
     30 H4         15.1358  -10.6792    0.2608 H         1    LIG55    0.0000
     31 H5         15.5567  -14.2479    0.1924 H         1    LIG55    0.0000
     32 H6         17.1533  -12.5408    2.1798 H         1    LIG55    0.0000
     33 H7         19.2540  -11.2226    1.9297 H         1    LIG55    0.0000
     34 H8         18.6817  -11.1229   -2.3538 H         1    LIG55    0.0000
     35 H9         16.5815  -12.4414   -2.1044 H         1    LIG55    0.0000
     36 H10        14.5143   -6.2304    0.3533 H         1    LIG55    0.0000
     37 H11        16.1657   -7.7864    0.1386 H         1    LIG55    0.0000
     38 H12        15.8513   -9.2933    1.0820 H         1    LIG55    0.0000
     39 H13        15.6259   -9.2861   -0.7093 H         1    LIG55    0.0000
     40 H14        12.7102   -4.7676    0.5851 H         1    LIG55    0.0000
     41 H15        11.1924   -5.4268   -0.1370 H         1    LIG55    0.0000
     42 H16        11.4169   -5.4336    1.6545 H         1    LIG55    0.0000
     43 H17        21.0084  -11.6561   -1.6807 H         1    LIG55    0.0000
     44 H18        22.1932  -10.9254   -0.5828 H         1    LIG55    0.0000
     45 H19        20.7500   -9.5914   -2.9899 H         1    LIG55    0.0000
     46 H20        22.4977   -9.8439   -2.7667 H         1    LIG55    0.0000
     47 H21        19.7338   -7.9053   -1.4308 H         1    LIG55    0.0000
     48 H22        20.8260   -7.0033   -0.3496 H         1    LIG55    0.0000
     49 H23        21.2193   -9.1201    0.9485 H         1    LIG55    0.0000
     50 H24        19.4682   -8.8557    0.8841 H         1    LIG55    0.0000
@<TRIPOS>BOND
     1    1    2 ar
     2    1    6 ar
     3    2    3 ar
     4    3    4 ar
     5    4    5 ar
     6    4    7 2
     7    5    6 ar
     8    6   14 1
     9    7    8 1
    10    8    9 ar
    11    8   13 ar
    12    9   10 ar
    13   10   11 ar
    14   11   12 ar
    15   11   21 1
    16   12   13 ar
    17   14   15 ar
    18   14   18 ar
    19   15   16 ar
    20   16   17 ar
    21   16   20 1
    22   17   18 ar
    23   18   19 1
    24   21   22 1
    25   21   26 1
    26   22   23 1
    27   23   24 1
    28   24   25 1
    29   25   26 1
    30    1   27 1
    31    2   28 1
    32    3   29 1
    33    5   30 1
    34    7   31 1
    35    9   32 1
    36   10   33 1
    37   12   34 1
    38   13   35 1
    39   17   36 1
    40   19   37 1
    41   19   38 1
    42   19   39 1
    43   20   40 1
    44   20   41 1
    45   20   42 1
    46   22   43 1
    47   22   44 1
    48   23   45 1
    49   23   46 1
    50   25   47 1
    51   25   48 1
    52   26   49 1
    53   26   50 1
@<TRIPOS>SUBSTRUCTURE
     1    LIG55    1   GROUP 1   LIG 1
@<TRIPOS>MOLECULE
50436577
   40    42    1     0     0
SMALL
USER_CHARGES


@<TRIPOS>ATOM
      1 C1         -3.1890    2.8050   -0.0330 C.ar      1    LIG56    0.0000
      2 C2         -3.2250    1.5960    0.6860 C.ar      1    LIG56    0.0000
      3 C3         -2.0250    1.0860    1.2260 C.ar      1    LIG56    0.0000
      4 C4         -0.8130    1.7890    1.0810 C.ar      1    LIG56    0.0000
      5 C5         -0.8020    3.0080    0.3760 C.ar      1    LIG56    0.0000
      6 C6         -1.9860    3.5210   -0.1880 C.ar      1    LIG56    0.0000
      7 N1         -4.4210    0.9620    0.7900 N.pl3     1    LIG56    0.0000
      8 C7         -4.9100    0.3350    1.8870 C.ar      1    LIG56    0.0000
      9 N2         -6.1500   -0.2030    1.8130 N.pl3     1    LIG56    0.0000
     10 C8         -6.7220   -0.8320    2.8660 C.ar      1    LIG56    0.0000
     11 C9         -6.0290   -0.9430    4.0790 C.ar      1    LIG56    0.0000
     12 C10        -4.7400   -0.3830    4.1500 C.ar      1    LIG56    0.0000
     13 N3         -4.2310    0.2360    3.0570 N.pl3     1    LIG56    0.0000
     14 C11        -3.9560   -0.4440    5.3120 C.ar      1    LIG56    0.0000
     15 N4         -4.3570   -1.0280    6.4570 N.pl3     1    LIG56    0.0000
     16 C12        -3.4230   -0.9610    7.4130 C.ar      1    LIG56    0.0000
     17 C13        -2.2690   -0.3130    6.9960 C.ar      1    LIG56    0.0000
     18 S1         -2.3610    0.2370    5.3590 S.2       1    LIG56    0.0000
     19 C14        -1.0910   -0.1100    7.8400 C.3       1    LIG56    0.0000
     20 C15        -1.9860    4.7900   -0.9310 C.3       1    LIG56    0.0000
     21 C16         0.4190    1.2410    1.6690 C.3       1    LIG56    0.0000
     22 H1         -4.1058    3.1933   -0.4767 H         1    LIG56    0.0000
     23 H2         -2.0362    0.1368    1.7617 H         1    LIG56    0.0000
     24 H3          0.1316    3.5596    0.2658 H         1    LIG56    0.0000
     25 H4         -5.0169    0.9572   -0.0501 H         1    LIG56    0.0000
     26 H5         -6.6737   -0.1315    0.9290 H         1    LIG56    0.0000
     27 H6         -7.7230   -1.2528    2.7705 H         1    LIG56    0.0000
     28 H7         -6.4732   -1.4459    4.9380 H         1    LIG56    0.0000
     29 H8         -3.2891    0.6485    3.1174 H         1    LIG56    0.0000
     30 H9         -5.2765   -1.4748    6.5826 H         1    LIG56    0.0000
     31 H10        -3.5548   -1.3721    8.4138 H         1    LIG56    0.0000
     32 H11        -0.3559    0.4242    7.2380 H         1    LIG56    0.0000
     33 H12        -1.4129    0.4761    8.7008 H         1    LIG56    0.0000
     34 H13        -0.7345   -1.0976    8.1326 H         1    LIG56    0.0000
     35 H14        -0.9619    5.1631   -0.9245 H         1    LIG56    0.0000
     36 H15        -2.3300    4.5678   -1.9412 H         1    LIG56    0.0000
     37 H16        -2.6662    5.4641   -0.4104 H         1    LIG56    0.0000
     38 H17         1.2217    1.9408    1.4366 H         1    LIG56    0.0000
     39 H18         0.2507    1.1595    2.7428 H         1    LIG56    0.0000
     40 H19         0.5853    0.2666    1.2098 H         1    LIG56    0.0000
@<TRIPOS>BOND
     1    1    2 ar
     2    1    6 ar
     3    2    3 ar
     4    2    7 1
     5    3    4 ar
     6    4    5 ar
     7    4   21 1
     8    5    6 ar
     9    6   20 1
    10    7    8 1
    11    8    9 ar
    12    8   13 ar
    13    9   10 ar
    14   10   11 ar
    15   11   12 ar
    16   12   13 ar
    17   12   14 1
    18   14   15 ar
    19   14   18 ar
    20   15   16 ar
    21   16   17 ar
    22   17   18 ar
    23   17   19 1
    24    1   22 1
    25    3   23 1
    26    5   24 1
    27    7   25 1
    28    9   26 1
    29   10   27 1
    30   11   28 1
    31   13   29 1
    32   15   30 1
    33   16   31 1
    34   19   32 1
    35   19   33 1
    36   19   34 1
    37   20   35 1
    38   20   36 1
    39   20   37 1
    40   21   38 1
    41   21   39 1
    42   21   40 1
@<TRIPOS>SUBSTRUCTURE
     1    LIG56    1   GROUP 1   LIG 1
@<TRIPOS>MOLECULE
50948471
   61    64    1     0     0
SMALL
USER_CHARGES


@<TRIPOS>ATOM
      1 C1         21.4330   -6.0770    0.5480 C.3       1    LIG57    0.0000
      2 C2         22.4290   -5.0250    0.0200 C.3       1    LIG57    0.0000
      3 C3         22.1040   -7.0110    1.5760 C.3       1    LIG57    0.0000
      4 N1         20.0040   -4.5830    2.1530 N.ar      1    LIG57    0.0000
      5 N2         18.7110   -4.3980    2.1290 N.ar      1    LIG57    0.0000
      6 C4         18.1000   -5.0850    1.1370 C.ar      1    LIG57    0.0000
      7 N3         16.7880   -5.1360    0.8120 N.am      1    LIG57    0.0000
      8 C5         20.2710   -5.4230    1.1420 C.2       1    LIG57    0.0000
      9 C6         19.1260   -5.7510    0.5000 C.2       1    LIG57    0.0000
     10 C7         19.3450   -6.6600   -0.6040 C.3       1    LIG57    0.0000
     11 N4         20.7770   -6.8100   -0.5180 N.am      1    LIG57    0.0000
     12 C8         21.4380   -7.6180   -1.3850 C.2       1    LIG57    0.0000
     13 O1         22.7890   -7.7480   -1.3000 O.3       1    LIG57    0.0000
     14 O2         20.8040   -8.2440   -2.2650 O.co2     1    LIG57    0.0000
     15 C9         15.7950   -4.4680    1.4560 C.2       1    LIG57    0.0000
     16 C10        14.4500   -4.5950    1.0300 C.ar      1    LIG57    0.0000
     17 O3         16.0650   -3.7380    2.4410 O.2       1    LIG57    0.0000
     18 C11        13.3860   -4.2310    1.8870 C.ar      1    LIG57    0.0000
     19 C12        12.0490   -4.3570    1.4740 C.ar      1    LIG57    0.0000
     20 C13        11.7520   -4.8500    0.1920 C.ar      1    LIG57    0.0000
     21 C14        12.7970   -5.2130   -0.6740 C.ar      1    LIG57    0.0000
     22 C15        14.1340   -5.0860   -0.2580 C.ar      1    LIG57    0.0000
     23 C16        23.4430   -8.9550   -1.7120 C.3       1    LIG57    0.0000
     24 C17        23.2910  -10.0450   -0.6240 C.3       1    LIG57    0.0000
     25 C18        24.8720   -8.6460   -1.9450 C.ar      1    LIG57    0.0000
     26 C19        25.6560   -8.0620   -0.9270 C.ar      1    LIG57    0.0000
     27 C20        27.0130   -7.7720   -1.1470 C.ar      1    LIG57    0.0000
     28 C21        27.6000   -8.0610   -2.3900 C.ar      1    LIG57    0.0000
     29 C22        26.8290   -8.6370   -3.4120 C.ar      1    LIG57    0.0000
     30 C23        25.4710   -8.9260   -3.1910 C.ar      1    LIG57    0.0000
     31 N5         21.8770  -10.4170   -0.3980 N.pl3     1    LIG57    1.0000
     32 C24        21.3800  -11.3060   -1.4650 C.3       1    LIG57    0.0000
     33 C25        21.7340  -11.0940    0.9030 C.3       1    LIG57    0.0000
     34 F1         10.5130   -4.9680   -0.1930 F         1    LIG57    0.0000
     35 H1         21.8887   -4.4057   -0.6960 H         1    LIG57    0.0000
     36 H2         22.7686   -4.4478    0.8800 H         1    LIG57    0.0000
     37 H3         23.2473   -5.5693   -0.4514 H         1    LIG57    0.0000
     38 H4         21.3457   -7.7226    1.9027 H         1    LIG57    0.0000
     39 H5         22.9305   -7.5054    1.0655 H         1    LIG57    0.0000
     40 H6         22.4517   -6.3839    2.3969 H         1    LIG57    0.0000
     41 H7         16.5202   -5.7282    0.0129 H         1    LIG57    0.0000
     42 H8         18.9851   -6.2993   -1.5676 H         1    LIG57    0.0000
     43 H9         18.7894   -7.5953   -0.5368 H         1    LIG57    0.0000
     44 H10        13.6063   -3.8469    2.8830 H         1    LIG57    0.0000
     45 H11        11.2415   -4.0721    2.1485 H         1    LIG57    0.0000
     46 H12        12.5709   -5.5937   -1.6700 H         1    LIG57    0.0000
     47 H13        14.9378   -5.3698   -0.9374 H         1    LIG57    0.0000
     48 H14        22.9914   -9.3360   -2.6280 H         1    LIG57    0.0000
     49 H15        23.7015   -9.6887    0.3208 H         1    LIG57    0.0000
     50 H16        23.7914  -10.9466   -0.9772 H         1    LIG57    0.0000
     51 H17        25.2046   -7.8339    0.0386 H         1    LIG57    0.0000
     52 H18        27.6101   -7.3229   -0.3534 H         1    LIG57    0.0000
     53 H19        28.6532   -7.8382   -2.5609 H         1    LIG57    0.0000
     54 H20        27.2834   -8.8603   -4.3773 H         1    LIG57    0.0000
     55 H21        24.8761   -9.3701   -3.9891 H         1    LIG57    0.0000
     56 H22        20.3403  -11.5346   -1.2308 H         1    LIG57    0.0000
     57 H23        21.4734  -10.7602   -2.4038 H         1    LIG57    0.0000
     58 H24        22.0042  -12.1995   -1.4519 H         1    LIG57    0.0000
     59 H25        20.6794  -11.3445    1.0177 H         1    LIG57    0.0000
     60 H26        22.3608  -11.9851    0.8692 H         1    LIG57    0.0000
     61 H27        22.0690  -10.3916    1.6663 H         1    LIG57    0.0000
@<TRIPOS>BOND
     1    1    2 1
     2    1    3 1
     3    1    8 1
     4    1   11 1
     5    4    5 ar
     6    4    8 ar
     7    5    6 ar
     8    6    7 1
     9    6    9 ar
    10    7   15 am
    11    8    9 ar
    12    9   10 1
    13   10   11 1
    14   11   12 1
    15   12   13 1
    16   12   14 2
    17   13   23 1
    18   15   16 1
    19   15   17 2
    20   16   18 ar
    21   16   22 ar
    22   18   19 ar
    23   19   20 ar
    24   20   21 ar
    25   20   34 2
    26   21   22 ar
    27   23   24 1
    28   23   25 1
    29   24   31 1
    30   25   26 ar
    31   25   30 ar
    32   26   27 ar
    33   27   28 ar
    34   28   29 ar
    35   29   30 ar
    36   31   32 1
    37   31   33 1
    38    2   35 1
    39    2   36 1
    40    2   37 1
    41    3   38 1
    42    3   39 1
    43    3   40 1
    44    7   41 1
    45   10   42 1
    46   10   43 1
    47   18   44 1
    48   19   45 1
    49   21   46 1
    50   22   47 1
    51   23   48 1
    52   24   49 1
    53   24   50 1
    54   26   51 1
    55   27   52 1
    56   28   53 1
    57   29   54 1
    58   30   55 1
    59   32   56 1
    60   32   57 1
    61   32   58 1
    62   33   59 1
    63   33   60 1
    64   33   61 1
@<TRIPOS>SUBSTRUCTURE
     1    LIG57    1   GROUP 1   LIG 1
@<TRIPOS>MOLECULE
50357146
   37    39    1     0     0
SMALL
USER_CHARGES


@<TRIPOS>ATOM
      1 C1          0.4400    2.6030    0.0260 C.ar      1    LIG58    0.0000
      2 C2          0.0110    0.4490   -0.9010 C.ar      1    LIG58    0.0000
      3 C3          1.7590    2.2040    0.2630 C.ar      1    LIG58    0.0000
      4 C4          2.1520    0.9260   -0.0970 C.ar      1    LIG58    0.0000
      5 C5          3.8310    1.9420    0.7740 C.ar      1    LIG58    0.0000
      6 N1          2.8130    2.8200    0.8010 N.pl3     1    LIG58    0.0000
      7 N2          3.4450    0.7720    0.2260 N.pl3     1    LIG58    0.0000
      8 N3         -0.3960    1.6990   -0.5540 N.am      1    LIG58    0.0000
      9 N4          1.2900    0.0570   -0.6720 N.ar      1    LIG58    0.0000
     10 N5         -0.8520   -0.3970   -1.4690 N.pl3     1    LIG58    0.0000
     11 O1          0.0430    3.8550    0.3720 O.2       1    LIG58    0.0000
     12 C6         -1.3160    4.2470    0.1640 C.3       1    LIG58    0.0000
     13 C7         -1.4970    5.7070    0.6110 C.3       1    LIG58    0.0000
     14 C8         -0.6250    6.6430   -0.2470 C.3       1    LIG58    0.0000
     15 C9         -0.8170    8.1040    0.1870 C.3       1    LIG58    0.0000
     16 C10        -2.2950    8.5070    0.0780 C.3       1    LIG58    0.0000
     17 C11        -3.1680    7.5740    0.9310 C.3       1    LIG58    0.0000
     18 C12        -2.9770    6.1140    0.4960 C.3       1    LIG58    0.0000
     19 H1          4.8347    2.1485    1.1456 H         1    LIG58    0.0000
     20 H2          2.8414    3.7825    1.1666 H         1    LIG58    0.0000
     21 H3          4.0242   -0.0679    0.0844 H         1    LIG58    0.0000
     22 H4         -1.3723    1.9717   -0.7367 H         1    LIG58    0.0000
     23 H5         -0.5463   -1.3445   -1.7329 H         1    LIG58    0.0000
     24 H6         -1.8233   -0.1020   -1.6433 H         1    LIG58    0.0000
     25 H7         -1.9288    3.5979    0.7896 H         1    LIG58    0.0000
     26 H8         -1.5814    4.0934   -0.8820 H         1    LIG58    0.0000
     27 H9         -1.1838    5.7944    1.6514 H         1    LIG58    0.0000
     28 H10        -0.9165    6.5427   -1.2925 H         1    LIG58    0.0000
     29 H11         0.4223    6.3711   -0.1154 H         1    LIG58    0.0000
     30 H12        -0.2252    8.7478   -0.4637 H         1    LIG58    0.0000
     31 H13        -0.4962    8.2109    1.2232 H         1    LIG58    0.0000
     32 H14        -2.6075    8.4322   -0.9636 H         1    LIG58    0.0000
     33 H15        -2.4118    9.5296    0.4367 H         1    LIG58    0.0000
     34 H16        -4.2146    7.8489    0.8000 H         1    LIG58    0.0000
     35 H17        -2.8761    7.6730    1.9765 H         1    LIG58    0.0000
     36 H18        -3.5745    5.4708    1.1420 H         1    LIG58    0.0000
     37 H19        -3.2931    6.0113   -0.5421 H         1    LIG58    0.0000
@<TRIPOS>BOND
     1    1    3 ar
     2    1    8 ar
     3    1   11 2
     4    2    8 ar
     5    2    9 ar
     6    2   10 2
     7    3    4 ar
     8    3    6 ar
     9    4    7 ar
    10    4    9 ar
    11    5    6 ar
    12    5    7 ar
    13   11   12 1
    14   12   13 1
    15   13   14 1
    16   13   18 1
    17   14   15 1
    18   15   16 1
    19   16   17 1
    20   17   18 1
    21    5   19 1
    22    6   20 1
    23    7   21 1
    24    8   22 1
    25   10   23 1
    26   10   24 1
    27   12   25 1
    28   12   26 1
    29   13   27 1
    30   14   28 1
    31   14   29 1
    32   15   30 1
    33   15   31 1
    34   16   32 1
    35   16   33 1
    36   17   34 1
    37   17   35 1
    38   18   36 1
    39   18   37 1
@<TRIPOS>SUBSTRUCTURE
     1    LIG58    1   GROUP 1   LIG 1
@<TRIPOS>MOLECULE
50304510
   55    59    1     0     0
SMALL
USER_CHARGES


@<TRIPOS>ATOM
      1 C1          1.9030   -2.1310    0.2090 C.ar      1    LIG59    0.0000
      2 C2          1.8700   -3.5370    0.3320 C.ar      1    LIG59    0.0000
      3 N1          0.7020   -4.1790    0.6070 N.pl3     1    LIG59    0.0000
      4 C3          0.7120   -1.3970    0.3730 C.ar      1    LIG59    0.0000
      5 C4         -0.4780   -2.0920    0.6520 C.ar      1    LIG59    0.0000
      6 C5         -0.4480   -3.4800    0.7650 C.ar      1    LIG59    0.0000
      7 N2         -1.6850   -3.9170    1.0340 N.pl3     1    LIG59    0.0000
      8 C6         -2.5120   -2.8590    1.0980 C.ar      1    LIG59    0.0000
      9 C7         -1.7960   -1.6820    0.8610 C.ar      1    LIG59    0.0000
     10 C8         -2.3270   -0.3790    0.8380 C.ar      1    LIG59    0.0000
     11 N3         -1.5360    0.6920    0.5870 N.pl3     1    LIG59    0.0000
     12 C9         -2.0050    1.9620    0.5490 C.ar      1    LIG59    0.0000
     13 C10        -3.3700    2.2010    0.7850 C.ar      1    LIG59    0.0000
     14 C11        -4.1820    1.0880    1.0450 C.ar      1    LIG59    0.0000
     15 N4         -3.6470   -0.1570    1.0640 N.pl3     1    LIG59    0.0000
     16 F1         -3.8750    3.4040    0.7650 F         1    LIG59    0.0000
     17 N5         -1.1620    2.9880    0.2950 N.pl3     1    LIG59    0.0000
     18 C12         0.2310    2.8250    0.0460 C.3       1    LIG59    0.0000
     19 C13         0.4970    2.1680   -1.3300 C.3       1    LIG59    0.0000
     20 C14         2.0110    1.9010   -1.4450 C.3       1    LIG59    0.0000
     21 C15         2.7950    3.2260   -1.3500 C.3       1    LIG59    0.0000
     22 C16         1.8240    4.4070   -1.1490 C.3       1    LIG59    0.0000
     23 C17         0.9370    4.2080    0.1050 C.3       1    LIG59    0.0000
     24 F2          3.0220   -1.5160   -0.0530 F         1    LIG59    0.0000
     25 C18         1.7220    4.4100    1.4200 C.3       1    LIG59    0.0000
     26 C19         0.7630    4.5260    2.6130 C.3       1    LIG59    0.0000
     27 O1          2.6170    3.3340    1.6690 O.3       1    LIG59    0.0000
     28 C20         0.0790    3.1310   -2.4600 C.3       1    LIG59    0.0000
     29 C21         0.8880    4.4440   -2.3740 C.3       1    LIG59    0.0000
     30 H1          2.7869   -4.1127    0.2058 H         1    LIG59    0.0000
     31 H2          0.6921   -5.2051    0.6958 H         1    LIG59    0.0000
     32 H3          0.7129   -0.3105    0.2853 H         1    LIG59    0.0000
     33 H4         -1.9577   -4.9010    1.1695 H         1    LIG59    0.0000
     34 H5         -3.5811   -2.9112    1.3039 H         1    LIG59    0.0000
     35 H6         -0.5326    0.5332    0.4174 H         1    LIG59    0.0000
     36 H7         -5.2470    1.2245    1.2325 H         1    LIG59    0.0000
     37 H8         -4.2618   -0.9607    1.2561 H         1    LIG59    0.0000
     38 H9         -1.5493    3.9423    0.2807 H         1    LIG59    0.0000
     39 H10         0.6313    2.1650    0.8156 H         1    LIG59    0.0000
     40 H11        -0.0727    1.2428   -1.4164 H         1    LIG59    0.0000
     41 H12         2.2179    1.4325   -2.4072 H         1    LIG59    0.0000
     42 H13         2.3200    1.2443   -0.6318 H         1    LIG59    0.0000
     43 H14         3.3536    3.3770   -2.2737 H         1    LIG59    0.0000
     44 H15         3.4767    3.1768   -0.5009 H         1    LIG59    0.0000
     45 H16         2.4027    5.3227   -1.0279 H         1    LIG59    0.0000
     46 H17         0.1689    4.9813    0.1005 H         1    LIG59    0.0000
     47 H18         2.2930    5.3314    1.3053 H         1    LIG59    0.0000
     48 H19         1.3768    4.6660    3.5028 H         1    LIG59    0.0000
     49 H20         0.1215    5.3866    2.4237 H         1    LIG59    0.0000
     50 H21         0.1935    3.5976    2.6555 H         1    LIG59    0.0000
     51 H22         3.2494    3.2746    0.8582 H         1    LIG59    0.0000
     52 H23        -0.9817    3.3597   -2.3563 H         1    LIG59    0.0000
     53 H24         0.2723    2.6556   -3.4216 H         1    LIG59    0.0000
     54 H25         1.4865    4.5565   -3.2780 H         1    LIG59    0.0000
     55 H26         0.2009    5.2843   -2.2752 H         1    LIG59    0.0000
@<TRIPOS>BOND
     1    1    2 ar
     2    1    4 ar
     3    1   24 2
     4    2    3 ar
     5    3    6 ar
     6    4    5 ar
     7    5    6 ar
     8    5    9 ar
     9    6    7 ar
    10    7    8 ar
    11    8    9 ar
    12    9   10 1
    13   10   11 ar
    14   10   15 ar
    15   11   12 ar
    16   12   13 ar
    17   12   17 2
    18   13   14 ar
    19   13   16 2
    20   14   15 ar
    21   17   18 1
    22   18   19 1
    23   18   23 1
    24   19   20 1
    25   19   28 1
    26   20   21 1
    27   21   22 1
    28   22   23 1
    29   22   29 1
    30   23   25 1
    31   25   26 1
    32   25   27 1
    33   28   29 1
    34    2   30 1
    35    3   31 1
    36    4   32 1
    37    7   33 1
    38    8   34 1
    39   11   35 1
    40   14   36 1
    41   15   37 1
    42   17   38 1
    43   18   39 1
    44   19   40 1
    45   20   41 1
    46   20   42 1
    47   21   43 1
    48   21   44 1
    49   22   45 1
    50   23   46 1
    51   25   47 1
    52   26   48 1
    53   26   49 1
    54   26   50 1
    55   27   51 1
    56   28   52 1
    57   28   53 1
    58   29   54 1
    59   29   55 1
@<TRIPOS>SUBSTRUCTURE
     1    LIG59    1   GROUP 1   LIG 1
@<TRIPOS>MOLECULE
50699979
   37    38    1     0     0
SMALL
USER_CHARGES


@<TRIPOS>ATOM
      1 C1          0.1430    2.3200    0.4400 C.ar      1    LIG60    0.0000
      2 C2         -0.8630    0.1840    0.3240 C.ar      1    LIG60    0.0000
      3 C3          1.4750    0.3350    0.6030 C.ar      1    LIG60    0.0000
      4 C4          1.4170    1.7450    0.5940 C.ar      1    LIG60    0.0000
      5 N1         -0.9530    1.5320    0.3100 N.am      1    LIG60    0.0000
      6 N2          0.3460   -0.4000    0.4690 N.pl3     1    LIG60    0.0000
      7 N3         -1.9620   -0.5640    0.1960 N.pl3     1    LIG60    0.0000
      8 N4          2.4600    2.5460    0.7180 N.2       1    LIG60    0.0000
      9 O1          3.5680    2.2040    0.8520 O.2       1    LIG60    0.0000
     10 O2          0.0250    3.6770    0.4250 O.2       1    LIG60    0.0000
     11 C5         -1.2570    4.2850    0.2520 C.3       1    LIG60    0.0000
     12 C6         -1.1020    5.8140    0.2770 C.3       1    LIG60    0.0000
     13 C7         -0.1950    6.2810   -0.8770 C.3       1    LIG60    0.0000
     14 C8         -0.0530    7.8110   -0.8650 C.3       1    LIG60    0.0000
     15 C9         -1.4330    8.4780   -0.9700 C.3       1    LIG60    0.0000
     16 C10        -2.3390    8.0150    0.1810 C.3       1    LIG60    0.0000
     17 C11        -2.4830    6.4860    0.1670 C.3       1    LIG60    0.0000
     18 N5          2.6290   -0.3330    0.7420 N.pl3     1    LIG60    0.0000
     19 H1         -1.8774    1.9723    0.1978 H         1    LIG60    0.0000
     20 H2          0.4106   -1.4279    0.4778 H         1    LIG60    0.0000
     21 H3         -1.8899   -1.5914    0.2071 H         1    LIG60    0.0000
     22 H4         -2.8817   -0.1135    0.0862 H         1    LIG60    0.0000
     23 H5         -1.8698    3.9695    1.0964 H         1    LIG60    0.0000
     24 H6         -1.7062    3.9253   -0.6737 H         1    LIG60    0.0000
     25 H7         -0.6405    6.1020    1.2216 H         1    LIG60    0.0000
     26 H8         -0.6381    5.9740   -1.8244 H         1    LIG60    0.0000
     27 H9          0.7919    5.8347   -0.7545 H         1    LIG60    0.0000
     28 H10         0.5552    8.1178   -1.7159 H         1    LIG60    0.0000
     29 H11         0.4185    8.1164    0.0691 H         1    LIG60    0.0000
     30 H12        -1.8919    8.1982   -1.9183 H         1    LIG60    0.0000
     31 H13        -1.3104    9.5596   -0.9128 H         1    LIG60    0.0000
     32 H14        -3.3242    8.4655    0.0609 H         1    LIG60    0.0000
     33 H15        -1.8943    8.3209    1.1280 H         1    LIG60    0.0000
     34 H16        -3.0966    6.1801    1.0144 H         1    LIG60    0.0000
     35 H17        -2.9502    6.1845   -0.7705 H         1    LIG60    0.0000
     36 H18         2.6309   -1.3630    0.7437 H         1    LIG60    0.0000
     37 H19         3.5138    0.1838    0.8471 H         1    LIG60    0.0000
@<TRIPOS>BOND
     1    1    4 ar
     2    1    5 ar
     3    1   10 2
     4    2    5 ar
     5    2    6 ar
     6    2    7 2
     7    3    4 ar
     8    3    6 ar
     9    3   18 2
    10    4    8 2
    11    8    9 2
    12   10   11 1
    13   11   12 1
    14   12   13 1
    15   12   17 1
    16   13   14 1
    17   14   15 1
    18   15   16 1
    19   16   17 1
    20    5   19 1
    21    6   20 1
    22    7   21 1
    23    7   22 1
    24   11   23 1
    25   11   24 1
    26   12   25 1
    27   13   26 1
    28   13   27 1
    29   14   28 1
    30   14   29 1
    31   15   30 1
    32   15   31 1
    33   16   32 1
    34   16   33 1
    35   17   34 1
    36   17   35 1
    37   18   36 1
    38   18   37 1
@<TRIPOS>SUBSTRUCTURE
     1    LIG60    1   GROUP 1   LIG 1
@<TRIPOS>MOLECULE
50436570
   38    40    1     0     0
SMALL
USER_CHARGES


@<TRIPOS>ATOM
      1 C1         -2.4630  -12.8710   -0.2690 C.ar      1    LIG61    0.0000
      2 C2         -2.5720  -14.0210    0.5320 C.ar      1    LIG61    0.0000
      3 C3         -1.4060  -14.5540    1.1240 C.ar      1    LIG61    0.0000
      4 C4         -0.1450  -13.9400    0.9570 C.ar      1    LIG61    0.0000
      5 C5         -0.0710  -12.7760    0.1590 C.ar      1    LIG61    0.0000
      6 C6         -1.2190  -12.2460   -0.4520 C.ar      1    LIG61    0.0000
      7 N1         -3.7980  -14.5900    0.6640 N.pl3     1    LIG61    0.0000
      8 C7         -4.3250  -15.1080    1.8000 C.ar      1    LIG61    0.0000
      9 N2         -5.5720  -15.6320    1.7480 N.pl3     1    LIG61    0.0000
     10 C8         -6.1710  -16.1640    2.8400 C.ar      1    LIG61    0.0000
     11 C9         -5.5000  -16.1800    4.0700 C.ar      1    LIG61    0.0000
     12 C10        -4.2070  -15.6300    4.1200 C.ar      1    LIG61    0.0000
     13 N3         -3.6690  -15.1140    2.9880 N.pl3     1    LIG61    0.0000
     14 C11        -3.4470  -15.5910    5.3000 C.ar      1    LIG61    0.0000
     15 N4         -3.8750  -16.0690    6.4830 N.pl3     1    LIG61    0.0000
     16 C12        -2.9690  -15.9130    7.4560 C.ar      1    LIG61    0.0000
     17 C13        -1.8090  -15.3000    7.0030 C.ar      1    LIG61    0.0000
     18 S1         -1.8540  -14.9050    5.3210 S.2       1    LIG61    0.0000
     19 C14         1.0490  -14.5310    1.6180 C.3       1    LIG61    0.0000
     20 C15        -3.1850  -16.3520    8.8390 C.3       1    LIG61    0.0000
     21 F1          2.2180  -13.8450    1.3810 F         1    LIG61    0.0000
     22 F2          0.8690  -14.5580    2.9810 F         1    LIG61    0.0000
     23 F3          1.2440  -15.8190    1.1790 F         1    LIG61    0.0000
     24 O1         -3.1070  -15.2440    9.7280 O.3       1    LIG61    0.0000
     25 O2         -1.1340  -11.1340   -1.2150 O.2       1    LIG61    0.0000
     26 H1         -3.3505  -12.4615   -0.7515 H         1    LIG61    0.0000
     27 H2         -1.4809  -15.4608    1.7241 H         1    LIG61    0.0000
     28 H3          0.8904  -12.2828    0.0158 H         1    LIG61    0.0000
     29 H4         -4.3845  -14.6319   -0.1817 H         1    LIG61    0.0000
     30 H5         -6.0800  -15.6260    0.8520 H         1    LIG61    0.0000
     31 H6         -7.1755  -16.5799    2.7620 H         1    LIG61    0.0000
     32 H7         -5.9654  -16.6051    4.9593 H         1    LIG61    0.0000
     33 H8         -2.7227  -14.7095    3.0312 H         1    LIG61    0.0000
     34 H9         -4.7969  -16.5061    6.6240 H         1    LIG61    0.0000
     35 H10        -0.9538  -15.0885    7.6449 H         1    LIG61    0.0000
     36 H11        -2.4338  -17.0888    9.1235 H         1    LIG61    0.0000
     37 H12        -4.1849  -16.7775    8.9241 H         1    LIG61    0.0000
     38 H13        -3.2652  -15.6086   10.6782 H         1    LIG61    0.0000
@<TRIPOS>BOND
     1    1    2 ar
     2    1    6 ar
     3    2    3 ar
     4    2    7 1
     5    3    4 ar
     6    4    5 ar
     7    4   19 1
     8    5    6 ar
     9    6   25 2
    10    7    8 1
    11    8    9 ar
    12    8   13 ar
    13    9   10 ar
    14   10   11 ar
    15   11   12 ar
    16   12   13 ar
    17   12   14 1
    18   14   15 ar
    19   14   18 ar
    20   15   16 ar
    21   16   17 ar
    22   16   20 1
    23   17   18 ar
    24   19   21 1
    25   19   22 1
    26   19   23 1
    27   20   24 1
    28    1   26 1
    29    3   27 1
    30    5   28 1
    31    7   29 1
    32    9   30 1
    33   10   31 1
    34   11   32 1
    35   13   33 1
    36   15   34 1
    37   17   35 1
    38   20   36 1
    39   20   37 1
    40   24   38 1
@<TRIPOS>SUBSTRUCTURE
     1    LIG61    1   GROUP 1   LIG 1
@<TRIPOS>MOLECULE
50436568
   41    43    1     0     0
SMALL
USER_CHARGES


@<TRIPOS>ATOM
      1 C1         11.9770  -12.3660   -0.1760 C.ar      1    LIG62    0.0000
      2 C2         11.8720  -13.4760    0.6800 C.ar      1    LIG62    0.0000
      3 C3         13.0320  -13.9450    1.3320 C.ar      1    LIG62    0.0000
      4 C4         14.2800  -13.3050    1.1700 C.ar      1    LIG62    0.0000
      5 C5         14.3490  -12.1830    0.3140 C.ar      1    LIG62    0.0000
      6 C6         13.2080  -11.7110   -0.3630 C.ar      1    LIG62    0.0000
      7 N1         10.6520  -14.0640    0.7950 N.pl3     1    LIG62    0.0000
      8 C7         10.1150  -14.6170    1.9090 C.ar      1    LIG62    0.0000
      9 N2          8.8680  -15.1370    1.8200 N.pl3     1    LIG62    0.0000
     10 C8          8.2510  -15.7040    2.8840 C.ar      1    LIG62    0.0000
     11 C9          8.9030  -15.7670    4.1220 C.ar      1    LIG62    0.0000
     12 C10        10.1980  -15.2230    4.2100 C.ar      1    LIG62    0.0000
     13 N3         10.7530  -14.6670    3.1050 N.pl3     1    LIG62    0.0000
     14 C11        10.9420  -15.2380    5.3990 C.ar      1    LIG62    0.0000
     15 N4         10.4950  -15.7610    6.5550 N.pl3     1    LIG62    0.0000
     16 C12        11.3900  -15.6570    7.5460 C.ar      1    LIG62    0.0000
     17 C13        12.5630  -15.0410    7.1320 C.ar      1    LIG62    0.0000
     18 S1         12.5430  -14.5720    5.4680 S.2       1    LIG62    0.0000
     19 C14        15.4680  -13.8280    1.8950 C.3       1    LIG62    0.0000
     20 C15        11.1530  -16.1520    8.9050 C.3       1    LIG62    0.0000
     21 F1         16.6270  -13.1250    1.6560 F         1    LIG62    0.0000
     22 F2         15.2490  -13.7890    3.2520 F         1    LIG62    0.0000
     23 F3         15.7080  -15.1310    1.5310 F         1    LIG62    0.0000
     24 O1         11.2360  -15.0840    9.8420 O.3       1    LIG62    0.0000
     25 C16        13.2820  -10.5480   -1.2610 C.3       1    LIG62    0.0000
     26 H1         11.0923  -12.0077   -0.7023 H         1    LIG62    0.0000
     27 H2         12.9631  -14.8219    1.9758 H         1    LIG62    0.0000
     28 H3         15.3026  -11.6736    0.1752 H         1    LIG62    0.0000
     29 H4         10.0734  -14.0922   -0.0567 H         1    LIG62    0.0000
     30 H5          8.3743  -15.1003    0.9168 H         1    LIG62    0.0000
     31 H6          7.2459  -16.1118    2.7767 H         1    LIG62    0.0000
     32 H7          8.4234  -16.2222    4.9885 H         1    LIG62    0.0000
     33 H8         11.6989  -14.2657    3.1767 H         1    LIG62    0.0000
     34 H9          9.5669  -16.1937    6.6658 H         1    LIG62    0.0000
     35 H10        13.4137  -14.8697    7.7916 H         1    LIG62    0.0000
     36 H11        11.8918  -16.9103    9.1645 H         1    LIG62    0.0000
     37 H12        10.1471  -16.5682    8.9609 H         1    LIG62    0.0000
     38 H13        11.0624  -15.4868   10.7739 H         1    LIG62    0.0000
     39 H14        14.3167  -10.2054   -1.2541 H         1    LIG62    0.0000
     40 H15        12.9745  -10.8887   -2.2497 H         1    LIG62    0.0000
     41 H16        12.6028   -9.7942   -0.8628 H         1    LIG62    0.0000
@<TRIPOS>BOND
     1    1    2 ar
     2    1    6 ar
     3    2    3 ar
     4    2    7 1
     5    3    4 ar
     6    4    5 ar
     7    4   19 1
     8    5    6 ar
     9    6   25 1
    10    7    8 1
    11    8    9 ar
    12    8   13 ar
    13    9   10 ar
    14   10   11 ar
    15   11   12 ar
    16   12   13 ar
    17   12   14 1
    18   14   15 ar
    19   14   18 ar
    20   15   16 ar
    21   16   17 ar
    22   16   20 1
    23   17   18 ar
    24   19   21 1
    25   19   22 1
    26   19   23 1
    27   20   24 1
    28    1   26 1
    29    3   27 1
    30    5   28 1
    31    7   29 1
    32    9   30 1
    33   10   31 1
    34   11   32 1
    35   13   33 1
    36   15   34 1
    37   17   35 1
    38   20   36 1
    39   20   37 1
    40   24   38 1
    41   25   39 1
    42   25   40 1
    43   25   41 1
@<TRIPOS>SUBSTRUCTURE
     1    LIG62    1   GROUP 1   LIG 1
@<TRIPOS>MOLECULE
50436567
   34    36    1     0     0
SMALL
USER_CHARGES


@<TRIPOS>ATOM
      1 C1          4.8630  -12.4940    0.0690 C.ar      1    LIG63    0.0000
      2 C2          4.8360  -13.7800    0.6370 C.ar      1    LIG63    0.0000
      3 C3          6.0550  -14.3900    1.0030 C.ar      1    LIG63    0.0000
      4 C4          7.2920  -13.7270    0.8420 C.ar      1    LIG63    0.0000
      5 C5          7.2850  -12.4280    0.2840 C.ar      1    LIG63    0.0000
      6 C6          6.0800  -11.8170   -0.1040 C.ar      1    LIG63    0.0000
      7 N1          3.6300  -14.3920    0.7640 N.pl3     1    LIG63    0.0000
      8 C7          3.2120  -15.1350    1.8170 C.ar      1    LIG63    0.0000
      9 N2          1.9670  -15.6630    1.7710 N.pl3     1    LIG63    0.0000
     10 C8          1.4680  -16.4110    2.7830 C.ar      1    LIG63    0.0000
     11 C9          2.2460  -16.6580    3.9230 C.ar      1    LIG63    0.0000
     12 C10         3.5380  -16.1040    3.9670 C.ar      1    LIG63    0.0000
     13 N3          3.9720  -15.3640    2.9180 N.pl3     1    LIG63    0.0000
     14 C11         4.4000  -16.2880    5.0600 C.ar      1    LIG63    0.0000
     15 S1          5.9880  -15.5900    5.0830 S.2       1    LIG63    0.0000
     16 C12         6.1850  -16.3130    6.6410 C.ar      1    LIG63    0.0000
     17 C13         5.0710  -17.0270    7.0530 C.ar      1    LIG63    0.0000
     18 N4          4.0790  -17.0030    6.1550 N.pl3     1    LIG63    0.0000
     19 O1          6.0870  -10.5780   -0.6430 O.2       1    LIG63    0.0000
     20 C14         8.5460  -14.4090    1.2570 C.3       1    LIG63    0.0000
     21 F1          9.6830  -13.6600    1.0600 F         1    LIG63    0.0000
     22 F2          8.4970  -14.7170    2.5960 F         1    LIG63    0.0000
     23 F3          8.7060  -15.5760    0.5490 F         1    LIG63    0.0000
     24 H1          3.9315  -12.0193   -0.2393 H         1    LIG63    0.0000
     25 H2          6.0416  -15.3970    1.4200 H         1    LIG63    0.0000
     26 H3          8.2259  -11.8935    0.1530 H         1    LIG63    0.0000
     27 H4          2.9681  -14.2802   -0.0172 H         1    LIG63    0.0000
     28 H5          1.3815  -15.4907    0.9413 H         1    LIG63    0.0000
     29 H6          0.4608  -16.8215    2.7115 H         1    LIG63    0.0000
     30 H7          1.8624  -17.2591    4.7474 H         1    LIG63    0.0000
     31 H8          4.9180  -14.9585    2.9578 H         1    LIG63    0.0000
     32 H9          7.0920  -16.2171    7.2378 H         1    LIG63    0.0000
     33 H10         5.0094  -17.5519    8.0063 H         1    LIG63    0.0000
     34 H11         3.1740  -17.4770    6.2863 H         1    LIG63    0.0000
@<TRIPOS>BOND
     1    1    2 ar
     2    1    6 ar
     3    2    3 ar
     4    2    7 1
     5    3    4 ar
     6    4    5 ar
     7    4   20 1
     8    5    6 ar
     9    6   19 2
    10    7    8 1
    11    8    9 ar
    12    8   13 ar
    13    9   10 ar
    14   10   11 ar
    15   11   12 ar
    16   12   13 ar
    17   12   14 1
    18   14   15 ar
    19   14   18 ar
    20   15   16 ar
    21   16   17 ar
    22   17   18 ar
    23   20   21 1
    24   20   22 1
    25   20   23 1
    26    1   24 1
    27    3   25 1
    28    5   26 1
    29    7   27 1
    30    9   28 1
    31   10   29 1
    32   11   30 1
    33   13   31 1
    34   16   32 1
    35   17   33 1
    36   18   34 1
@<TRIPOS>SUBSTRUCTURE
     1    LIG63    1   GROUP 1   LIG 1
@<TRIPOS>MOLECULE
50948462
   62    65    1     0     0
SMALL
USER_CHARGES


@<TRIPOS>ATOM
      1 C1         23.3040    2.4580    0.3620 C.3       1    LIG64    0.0000
      2 C2         24.1660    3.5720   -0.2700 C.3       1    LIG64    0.0000
      3 C3         24.1100    1.6450    1.3960 C.3       1    LIG64    0.0000
      4 N1         21.8580    3.9120    1.9880 N.ar      1    LIG64    0.0000
      5 N2         20.5550    4.0000    2.0350 N.ar      1    LIG64    0.0000
      6 C4         19.9420    3.2250    1.1120 C.ar      1    LIG64    0.0000
      7 N3         18.6220    3.0640    0.8690 N.am      1    LIG64    0.0000
      8 C5         22.1300    3.0470    0.9990 C.2       1    LIG64    0.0000
      9 C6         20.9780    2.6070    0.4420 C.2       1    LIG64    0.0000
     10 C7         21.2050    1.6680   -0.6340 C.3       1    LIG64    0.0000
     11 N4         22.6480    1.6200   -0.6290 N.am      1    LIG64    0.0000
     12 C8         23.3030    0.8200   -1.5130 C.2       1    LIG64    0.0000
     13 N5         24.6510    0.7610   -1.5320 N.am      1    LIG64    0.0000
     14 O1         22.6470    0.1320   -2.3280 O.2       1    LIG64    0.0000
     15 C9         17.6190    3.6870    1.5440 C.2       1    LIG64    0.0000
     16 C10        16.2660    3.4430    1.2040 C.ar      1    LIG64    0.0000
     17 O2         17.8890    4.4900    2.4700 O.2       1    LIG64    0.0000
     18 C11        15.2490    4.3350    1.6160 C.ar      1    LIG64    0.0000
     19 C12        13.9040    4.1000    1.2820 C.ar      1    LIG64    0.0000
     20 C13        13.5540    2.9670    0.5310 C.ar      1    LIG64    0.0000
     21 C14        14.5500    2.0690    0.1150 C.ar      1    LIG64    0.0000
     22 C15        15.8940    2.3050    0.4500 C.ar      1    LIG64    0.0000
     23 C16        25.4090   -0.0570   -2.4180 C.3       1    LIG64    0.0000
     24 C17        25.2210   -1.5570   -2.0780 C.3       1    LIG64    0.0000
     25 N6         26.0990   -2.4460   -2.8710 N.pl3     1    LIG64    1.0000
     26 C18        26.0360   -3.8140   -2.3250 C.3       1    LIG64    0.0000
     27 C19        25.6970   -2.4720   -4.2900 C.3       1    LIG64    0.0000
     28 C20        26.8310    0.3500   -2.3240 C.ar      1    LIG64    0.0000
     29 C21        27.5070    0.8410   -3.4610 C.ar      1    LIG64    0.0000
     30 C22        28.8550    1.2290   -3.3790 C.ar      1    LIG64    0.0000
     31 C23        29.5420    1.1320   -2.1570 C.ar      1    LIG64    0.0000
     32 C24        28.8800    0.6450   -1.0180 C.ar      1    LIG64    0.0000
     33 C25        27.5320    0.2570   -1.1020 C.ar      1    LIG64    0.0000
     34 H1         23.5328    4.0985   -0.9841 H         1    LIG64    0.0000
     35 H2         24.4900    4.2234    0.5416 H         1    LIG64    0.0000
     36 H3         25.0091    3.0839   -0.7590 H         1    LIG64    0.0000
     37 H4         23.4398    0.8838    1.7954 H         1    LIG64    0.0000
     38 H5         24.9544    1.2039    0.8664 H         1    LIG64    0.0000
     39 H6         24.4353    2.3434    2.1670 H         1    LIG64    0.0000
     40 H7         18.3546    2.4182    0.1125 H         1    LIG64    0.0000
     41 H8         20.7687    1.9629   -1.5883 H         1    LIG64    0.0000
     42 H9         20.7239    0.6999   -0.4943 H         1    LIG64    0.0000
     43 H10        25.1667    1.3472   -0.8603 H         1    LIG64    0.0000
     44 H11        15.5116    5.2167    2.2005 H         1    LIG64    0.0000
     45 H12        13.1323    4.7981    1.6064 H         1    LIG64    0.0000
     46 H13        12.5112    2.7847    0.2713 H         1    LIG64    0.0000
     47 H14        14.2805    1.1884   -0.4681 H         1    LIG64    0.0000
     48 H15        16.6606    1.6017    0.1246 H         1    LIG64    0.0000
     49 H16        25.0626    0.0779   -3.4426 H         1    LIG64    0.0000
     50 H17        24.1899   -1.8510   -2.2741 H         1    LIG64    0.0000
     51 H18        25.5155   -1.6992   -1.0382 H         1    LIG64    0.0000
     52 H19        26.6942   -4.4317   -2.9361 H         1    LIG64    0.0000
     53 H20        26.3757   -3.7603   -1.2907 H         1    LIG64    0.0000
     54 H21        24.9973   -4.1372   -2.3942 H         1    LIG64    0.0000
     55 H22        26.3854   -3.1428   -4.8040 H         1    LIG64    0.0000
     56 H23        24.6715   -2.8398   -4.3240 H         1    LIG64    0.0000
     57 H24        25.7736   -1.4502   -4.6617 H         1    LIG64    0.0000
     58 H25        26.9789    0.9200   -4.4113 H         1    LIG64    0.0000
     59 H26        29.3682    1.6055   -4.2639 H         1    LIG64    0.0000
     60 H27        30.5873    1.4343   -2.0931 H         1    LIG64    0.0000
     61 H28        29.4115    0.5681   -0.0695 H         1    LIG64    0.0000
     62 H29        27.0226   -0.1195   -0.2150 H         1    LIG64    0.0000
@<TRIPOS>BOND
     1    1    2 1
     2    1    3 1
     3    1    8 1
     4    1   11 1
     5    4    5 ar
     6    4    8 ar
     7    5    6 ar
     8    6    7 2
     9    6    9 ar
    10    7   15 am
    11    8    9 ar
    12    9   10 1
    13   10   11 1
    14   11   12 1
    15   12   13 1
    16   12   14 2
    17   13   23 1
    18   15   16 1
    19   15   17 2
    20   16   18 ar
    21   16   22 ar
    22   18   19 ar
    23   19   20 ar
    24   20   21 ar
    25   21   22 ar
    26   23   24 1
    27   23   28 1
    28   24   25 1
    29   25   26 1
    30   25   27 1
    31   28   29 ar
    32   28   33 ar
    33   29   30 ar
    34   30   31 ar
    35   31   32 ar
    36   32   33 ar
    37    2   34 1
    38    2   35 1
    39    2   36 1
    40    3   37 1
    41    3   38 1
    42    3   39 1
    43    7   40 1
    44   10   41 1
    45   10   42 1
    46   13   43 1
    47   18   44 1
    48   19   45 1
    49   20   46 1
    50   21   47 1
    51   22   48 1
    52   23   49 1
    53   24   50 1
    54   24   51 1
    55   26   52 1
    56   26   53 1
    57   26   54 1
    58   27   55 1
    59   27   56 1
    60   27   57 1
    61   29   58 1
    62   30   59 1
    63   31   60 1
    64   32   61 1
    65   33   62 1
@<TRIPOS>SUBSTRUCTURE
     1    LIG64    1   GROUP 1   LIG 1
@<TRIPOS>MOLECULE
50375328
   29    31    1     0     0
SMALL
USER_CHARGES


@<TRIPOS>ATOM
      1 C1         -2.5550    0.0130    1.0740 C.ar      1    LIG65    0.0000
      2 C2         -2.5050   -1.3780    0.8870 C.ar      1    LIG65    0.0000
      3 C3         -0.3390    0.2370    0.0910 C.ar      1    LIG65    0.0000
      4 C4         -1.4810    0.8320    0.6690 C.ar      1    LIG65    0.0000
      5 C5         -0.2800   -1.1580   -0.1010 C.ar      1    LIG65    0.0000
      6 C6         -1.3730   -1.9680    0.2990 C.ar      1    LIG65    0.0000
      7 N1         -1.3190   -3.3120    0.1150 N.pl3     1    LIG65    0.0000
      8 C7         -0.2510   -3.9340   -0.4440 C.ar      1    LIG65    0.0000
      9 C8          0.8580   -3.1790   -0.8570 C.ar      1    LIG65    0.0000
     10 C9          0.8380   -1.7860   -0.6830 C.ar      1    LIG65    0.0000
     11 C10        -1.5550    2.1900    0.8810 C.2       1    LIG65    0.0000
     12 C11        -1.3430    3.1020   -0.0780 C.ar      1    LIG65    0.0000
     13 C12        -1.4240    4.4540    0.1150 C.ar      1    LIG65    0.0000
     14 N2         -1.1950    5.1590   -0.9550 N.am      1    LIG65    0.0000
     15 C13        -0.9380    4.4060   -1.9880 C.ar      1    LIG65    0.0000
     16 S1         -0.9650    2.7010   -1.6920 S.2       1    LIG65    0.0000
     17 O1         -1.6930    4.9920    1.2120 O.2       1    LIG65    0.0000
     18 N3         -0.6720    4.9220   -3.1930 N.pl3     1    LIG65    0.0000
     19 H1         -3.4328    0.4640    1.5368 H         1    LIG65    0.0000
     20 H2         -3.3443   -2.0001    1.1979 H         1    LIG65    0.0000
     21 H3          0.5031    0.8607   -0.2089 H         1    LIG65    0.0000
     22 H4         -2.1228   -3.8834    0.4124 H         1    LIG65    0.0000
     23 H5         -0.2539   -5.0164   -0.5721 H         1    LIG65    0.0000
     24 H6          1.7226   -3.6674   -1.3065 H         1    LIG65    0.0000
     25 H7          1.6921   -1.1876   -1.0000 H         1    LIG65    0.0000
     26 H8         -1.7992    2.5428    1.8830 H         1    LIG65    0.0000
     27 H9         -1.2145    6.1885   -0.9824 H         1    LIG65    0.0000
     28 H10        -0.4731    4.2980   -3.9880 H         1    LIG65    0.0000
     29 H11        -0.6660    5.9434   -3.3260 H         1    LIG65    0.0000
@<TRIPOS>BOND
     1    1    2 ar
     2    1    4 ar
     3    2    6 ar
     4    3    4 ar
     5    3    5 ar
     6    4   11 1
     7    5    6 ar
     8    5   10 ar
     9    6    7 ar
    10    7    8 ar
    11    8    9 ar
    12    9   10 ar
    13   11   12 1
    14   12   13 ar
    15   12   16 ar
    16   13   14 ar
    17   13   17 2
    18   14   15 ar
    19   15   16 ar
    20   15   18 1
    21    1   19 1
    22    2   20 1
    23    3   21 1
    24    7   22 1
    25    8   23 1
    26    9   24 1
    27   10   25 1
    28   11   26 1
    29   14   27 1
    30   18   28 1
    31   18   29 1
@<TRIPOS>SUBSTRUCTURE
     1    LIG65    1   GROUP 1   LIG 1
@<TRIPOS>MOLECULE
50948468
   61    64    1     0     0
SMALL
USER_CHARGES


@<TRIPOS>ATOM
      1 C1         12.0400   -6.6770    0.5670 C.3       1    LIG66    0.0000
      2 C2         13.0410   -5.6220    0.0530 C.3       1    LIG66    0.0000
      3 C3         12.7060   -7.6230    1.5880 C.3       1    LIG66    0.0000
      4 N1         10.6110   -5.1930    2.1830 N.ar      1    LIG66    0.0000
      5 N2          9.3190   -5.0030    2.1570 N.ar      1    LIG66    0.0000
      6 C4          8.7090   -5.6790    1.1570 C.ar      1    LIG66    0.0000
      7 N3          7.3990   -5.7220    0.8240 N.am      1    LIG66    0.0000
      8 C5         10.8790   -6.0250    1.1660 C.2       1    LIG66    0.0000
      9 C6          9.7340   -6.3420    0.5170 C.2       1    LIG66    0.0000
     10 C7          9.9530   -7.2400   -0.5960 C.3       1    LIG66    0.0000
     11 N4         11.3840   -7.3960   -0.5080 N.am      1    LIG66    0.0000
     12 C8         12.0450   -8.1970   -1.3820 C.2       1    LIG66    0.0000
     13 O1         13.3960   -8.3260   -1.3010 O.3       1    LIG66    0.0000
     14 O2         11.4110   -8.8150   -2.2680 O.co2     1    LIG66    0.0000
     15 C9          6.4020   -5.0570    1.4670 C.2       1    LIG66    0.0000
     16 C10         5.0610   -5.1720    1.0240 C.ar      1    LIG66    0.0000
     17 O3          6.6670   -4.3410    2.4630 O.2       1    LIG66    0.0000
     18 C11         3.9910   -4.7780    1.8600 C.ar      1    LIG66    0.0000
     19 C12         2.6580   -4.8890    1.4280 C.ar      1    LIG66    0.0000
     20 C13         2.3740   -5.3950    0.1500 C.ar      1    LIG66    0.0000
     21 C14         3.4230   -5.7890   -0.6950 C.ar      1    LIG66    0.0000
     22 C15         4.7550   -5.6780   -0.2610 C.ar      1    LIG66    0.0000
     23 C16        14.0520   -9.5300   -1.7190 C.3       1    LIG66    0.0000
     24 C17        13.9140  -10.6190   -0.6290 C.3       1    LIG66    0.0000
     25 C18        15.4770   -9.2130   -1.9650 C.ar      1    LIG66    0.0000
     26 C19        16.2640   -8.6160   -0.9580 C.ar      1    LIG66    0.0000
     27 C20        17.6170   -8.3150   -1.1910 C.ar      1    LIG66    0.0000
     28 C21        18.1960   -8.6060   -2.4370 C.ar      1    LIG66    0.0000
     29 C22        17.4210   -9.1970   -3.4490 C.ar      1    LIG66    0.0000
     30 C23        16.0690   -9.4980   -3.2140 C.ar      1    LIG66    0.0000
     31 N5         12.5040  -10.9910   -0.3810 N.pl3     1    LIG66    1.0000
     32 C24        11.9870  -11.8730   -1.4460 C.3       1    LIG66    0.0000
     33 C25        12.3830  -11.6750    0.9180 C.3       1    LIG66    0.0000
     34 H1         12.5048   -4.9940   -0.6585 H         1    LIG66    0.0000
     35 H2         13.3791   -5.0545    0.9200 H         1    LIG66    0.0000
     36 H3         13.8595   -6.1637   -0.4211 H         1    LIG66    0.0000
     37 H4         11.9451   -8.3361    1.9052 H         1    LIG66    0.0000
     38 H5         13.5330   -8.1141    1.0751 H         1    LIG66    0.0000
     39 H6         13.0526   -7.0049    2.4162 H         1    LIG66    0.0000
     40 H7          7.1348   -6.3060    0.0177 H         1    LIG66    0.0000
     41 H8          9.5970   -6.8679   -1.5567 H         1    LIG66    0.0000
     42 H9          9.3941   -8.1741   -0.5400 H         1    LIG66    0.0000
     43 H10         4.2027   -4.3826    2.8534 H         1    LIG66    0.0000
     44 H11         1.8447   -4.5821    2.0856 H         1    LIG66    0.0000
     45 H12         1.3406   -5.4818   -0.1856 H         1    LIG66    0.0000
     46 H13         3.2045   -6.1812   -1.6882 H         1    LIG66    0.0000
     47 H14         5.5636   -5.9861   -0.9238 H         1    LIG66    0.0000
     48 H15        13.5953   -9.9146   -2.6309 H         1    LIG66    0.0000
     49 H16        14.3379  -10.2617    0.3095 H         1    LIG66    0.0000
     50 H17        14.4080  -11.5211   -0.9900 H         1    LIG66    0.0000
     51 H18        15.8187   -8.3860    0.0099 H         1    LIG66    0.0000
     52 H19        18.2166   -7.8559   -0.4050 H         1    LIG66    0.0000
     53 H20        19.2453   -8.3736   -2.6187 H         1    LIG66    0.0000
     54 H21        17.8689   -9.4221   -4.4169 H         1    LIG66    0.0000
     55 H22        15.4722   -9.9555   -4.0030 H         1    LIG66    0.0000
     56 H23        10.9513  -12.1020   -1.1953 H         1    LIG66    0.0000
     57 H24        12.0646  -11.3209   -2.3826 H         1    LIG66    0.0000
     58 H25        12.6103  -12.7672   -1.4498 H         1    LIG66    0.0000
     59 H26        11.3303  -11.9254    1.0495 H         1    LIG66    0.0000
     60 H27        13.0084  -12.5664    0.8683 H         1    LIG66    0.0000
     61 H28        12.7318  -10.9772    1.6793 H         1    LIG66    0.0000
@<TRIPOS>BOND
     1    1    2 1
     2    1    3 1
     3    1    8 1
     4    1   11 1
     5    4    5 ar
     6    4    8 ar
     7    5    6 ar
     8    6    7 2
     9    6    9 ar
    10    7   15 am
    11    8    9 ar
    12    9   10 1
    13   10   11 1
    14   11   12 1
    15   12   13 1
    16   12   14 2
    17   13   23 1
    18   15   16 1
    19   15   17 2
    20   16   18 ar
    21   16   22 ar
    22   18   19 ar
    23   19   20 ar
    24   20   21 ar
    25   21   22 ar
    26   23   24 1
    27   23   25 1
    28   24   31 1
    29   25   26 ar
    30   25   30 ar
    31   26   27 ar
    32   27   28 ar
    33   28   29 ar
    34   29   30 ar
    35   31   32 1
    36   31   33 1
    37    2   34 1
    38    2   35 1
    39    2   36 1
    40    3   37 1
    41    3   38 1
    42    3   39 1
    43    7   40 1
    44   10   41 1
    45   10   42 1
    46   18   43 1
    47   19   44 1
    48   20   45 1
    49   21   46 1
    50   22   47 1
    51   23   48 1
    52   24   49 1
    53   24   50 1
    54   26   51 1
    55   27   52 1
    56   28   53 1
    57   29   54 1
    58   30   55 1
    59   32   56 1
    60   32   57 1
    61   32   58 1
    62   33   59 1
    63   33   60 1
    64   33   61 1
@<TRIPOS>SUBSTRUCTURE
     1    LIG66    1   GROUP 1   LIG 1
@<TRIPOS>MOLECULE
50357147
   51    53    1     0     0
SMALL
USER_CHARGES


@<TRIPOS>ATOM
      1 C1         -0.8210    3.4770    0.7310 C.ar      1    LIG67    0.0000
      2 C2         -2.0830    1.4640    0.6430 C.ar      1    LIG67    0.0000
      3 C3          0.2370    1.4090    0.1580 C.ar      1    LIG67    0.0000
      4 C4          0.3550    2.7980    0.3710 C.ar      1    LIG67    0.0000
      5 N1         -1.9870    2.7970    0.8520 N.am      1    LIG67    0.0000
      6 N2         -0.9600    0.7940    0.2990 N.pl3     1    LIG67    0.0000
      7 N3         -3.2270    0.7450    0.7560 N.pl3     1    LIG67    0.0000
      8 C5         -4.4900    1.1530    1.0780 C.ar      1    LIG67    0.0000
      9 C6         -4.8930    2.4750    1.3690 C.ar      1    LIG67    0.0000
     10 C7         -6.2310    2.7670    1.6840 C.ar      1    LIG67    0.0000
     11 C8         -7.2100    1.7490    1.7200 C.ar      1    LIG67    0.0000
     12 C9         -6.8040    0.4280    1.4290 C.ar      1    LIG67    0.0000
     13 C10        -5.4660    0.1390    1.1130 C.ar      1    LIG67    0.0000
     14 O1         -0.7840    4.8200    0.9600 O.2       1    LIG67    0.0000
     15 C11        -1.9790    5.5070    1.3420 C.3       1    LIG67    0.0000
     16 C12        -1.6720    6.9970    1.5600 C.3       1    LIG67    0.0000
     17 C13        -1.1790    7.6420    0.2510 C.3       1    LIG67    0.0000
     18 C14        -0.8940    9.1370    0.4630 C.3       1    LIG67    0.0000
     19 C15        -2.1520    9.8580    0.9700 C.3       1    LIG67    0.0000
     20 C16        -2.6460    9.2160    2.2750 C.3       1    LIG67    0.0000
     21 C17        -2.9330    7.7220    2.0630 C.3       1    LIG67    0.0000
     22 N4          1.2840    0.6460   -0.1860 N.pl3     1    LIG67    0.0000
     23 N5          1.4740    3.4910    0.2590 N.2       1    LIG67    0.0000
     24 O2          2.5170    3.0530   -0.0310 O.2       1    LIG67    0.0000
     25 C18        -8.5550    2.0540    2.0400 C.2       1    LIG67    0.0000
     26 O3         -8.9150    3.2240    2.2980 O.2       1    LIG67    0.0000
     27 N6         -9.5160    1.1160    2.0880 N.am      1    LIG67    0.0000
     28 H1         -2.8363    3.3174    1.1143 H         1    LIG67    0.0000
     29 H2         -1.0179   -0.2218    0.1384 H         1    LIG67    0.0000
     30 H3         -3.1284   -0.2634    0.5706 H         1    LIG67    0.0000
     31 H4         -4.1570    3.2788    1.3490 H         1    LIG67    0.0000
     32 H5         -6.5181    3.7952    1.9041 H         1    LIG67    0.0000
     33 H6         -7.5381   -0.3775    1.4498 H         1    LIG67    0.0000
     34 H7         -5.1784   -0.8887    0.8910 H         1    LIG67    0.0000
     35 H8         -2.3027    5.0658    2.2847 H         1    LIG67    0.0000
     36 H9         -2.7430    5.3481    0.5810 H         1    LIG67    0.0000
     37 H10        -0.8849    7.0868    2.3087 H         1    LIG67    0.0000
     38 H11        -1.9495    7.5327   -0.5122 H         1    LIG67    0.0000
     39 H12        -0.2591    7.1486   -0.0628 H         1    LIG67    0.0000
     40 H13        -0.5915    9.5782   -0.4867 H         1    LIG67    0.0000
     41 H14        -0.1017    9.2449    1.2037 H         1    LIG67    0.0000
     42 H15        -2.9353    9.7789    0.2161 H         1    LIG67    0.0000
     43 H16        -1.9108   10.9043    1.1576 H         1    LIG67    0.0000
     44 H17        -3.5642    9.7124    2.5890 H         1    LIG67    0.0000
     45 H18        -1.8747    9.3242    3.0376 H         1    LIG67    0.0000
     46 H19        -3.2413    7.2825    3.0116 H         1    LIG67    0.0000
     47 H20        -3.7226    7.6167    1.3190 H         1    LIG67    0.0000
     48 H21         1.1578   -0.3656   -0.3329 H         1    LIG67    0.0000
     49 H22         2.2147    1.0713   -0.3034 H         1    LIG67    0.0000
     50 H23       -10.4827    1.3808    2.3251 H         1    LIG67    0.0000
     51 H24        -9.2859    0.1322    1.8877 H         1    LIG67    0.0000
@<TRIPOS>BOND
     1    1    4 ar
     2    1    5 ar
     3    1   14 2
     4    2    5 ar
     5    2    6 ar
     6    2    7 1
     7    3    4 ar
     8    3    6 ar
     9    3   22 2
    10    4   23 2
    11    7    8 2
    12    8    9 ar
    13    8   13 ar
    14    9   10 ar
    15   10   11 ar
    16   11   12 ar
    17   11   25 1
    18   12   13 ar
    19   14   15 1
    20   15   16 1
    21   16   17 1
    22   16   21 1
    23   17   18 1
    24   18   19 1
    25   19   20 1
    26   20   21 1
    27   23   24 2
    28   25   26 2
    29   25   27 1
    30    5   28 1
    31    6   29 1
    32    7   30 1
    33    9   31 1
    34   10   32 1
    35   12   33 1
    36   13   34 1
    37   15   35 1
    38   15   36 1
    39   16   37 1
    40   17   38 1
    41   17   39 1
    42   18   40 1
    43   18   41 1
    44   19   42 1
    45   19   43 1
    46   20   44 1
    47   20   45 1
    48   21   46 1
    49   21   47 1
    50   22   48 1
    51   22   49 1
    52   27   50 1
    53   27   51 1
@<TRIPOS>SUBSTRUCTURE
     1    LIG67    1   GROUP 1   LIG 1
@<TRIPOS>MOLECULE
50436574
   41    43    1     0     0
SMALL
USER_CHARGES


@<TRIPOS>ATOM
      1 C1         13.5360    3.0740    0.6520 C.ar      1    LIG68    0.0000
      2 C2         13.5500    1.6680    0.5830 C.ar      1    LIG68    0.0000
      3 C3         14.7740    0.9790    0.6660 C.ar      1    LIG68    0.0000
      4 C4         15.9840    1.6860    0.8070 C.ar      1    LIG68    0.0000
      5 C5         15.9570    3.0940    0.8680 C.ar      1    LIG68    0.0000
      6 C6         14.7370    3.7940    0.7900 C.ar      1    LIG68    0.0000
      7 N1         12.3910    0.9870    0.4520 N.pl3     1    LIG68    0.0000
      8 C7         11.8870    0.5850   -0.7370 C.ar      1    LIG68    0.0000
      9 N2         10.7110   -0.0850   -0.7500 N.pl3     1    LIG68    0.0000
     10 C8         10.1450   -0.5120   -1.9040 C.ar      1    LIG68    0.0000
     11 C9         10.7770   -0.2640   -3.1300 C.ar      1    LIG68    0.0000
     12 C10        12.0000    0.4310   -3.1090 C.ar      1    LIG68    0.0000
     13 N3         12.5100    0.8300   -1.9180 N.pl3     1    LIG68    0.0000
     14 C11        12.7140    0.7320   -4.2800 C.ar      1    LIG68    0.0000
     15 N4         12.3040    0.3910   -5.5160 N.pl3     1    LIG68    0.0000
     16 C12        13.1560    0.7920   -6.4680 C.ar      1    LIG68    0.0000
     17 C13        14.2550    1.4590   -5.9440 C.ar      1    LIG68    0.0000
     18 S1         14.2200    1.5910   -4.2210 S.2       1    LIG68    0.0000
     19 C14        12.9450    0.5440   -7.8980 C.3       1    LIG68    0.0000
     20 O1         12.8720    1.7740   -8.6080 O.3       1    LIG68    0.0000
     21 C15        17.2530    0.9480    0.8870 C.3       1    LIG68    0.0000
     22 C16        14.7010    5.2640    0.8500 C.3       1    LIG68    0.0000
     23 H1         12.5878    3.6088    0.5981 H         1    LIG68    0.0000
     24 H2         14.7859   -0.1100    0.6208 H         1    LIG68    0.0000
     25 H3         16.8900    3.6470    0.9767 H         1    LIG68    0.0000
     26 H4         11.8610    0.7610    1.3058 H         1    LIG68    0.0000
     27 H5         10.2333   -0.2754    0.1424 H         1    LIG68    0.0000
     28 H6          9.1969   -1.0491   -1.8791 H         1    LIG68    0.0000
     29 H7         10.3356   -0.5985   -4.0688 H         1    LIG68    0.0000
     30 H8         13.4054    1.3390   -1.9088 H         1    LIG68    0.0000
     31 H9         11.4315   -0.1216   -5.7082 H         1    LIG68    0.0000
     32 H10        15.0608    1.8601   -6.5588 H         1    LIG68    0.0000
     33 H11        12.0196   -0.0107   -8.0531 H         1    LIG68    0.0000
     34 H12        13.7936   -0.0168   -8.2899 H         1    LIG68    0.0000
     35 H13        12.7242    1.5406   -9.6003 H         1    LIG68    0.0000
     36 H14        18.0461    1.6883    0.9921 H         1    LIG68    0.0000
     37 H15        17.1885    0.2967    1.7586 H         1    LIG68    0.0000
     38 H16        17.3497    0.3791   -0.0377 H         1    LIG68    0.0000
     39 H17        15.7312    5.6039    0.9564 H         1    LIG68    0.0000
     40 H18        14.2543    5.6101   -0.0821 H         1    LIG68    0.0000
     41 H19        14.0942    5.5329    1.7146 H         1    LIG68    0.0000
@<TRIPOS>BOND
     1    1    2 ar
     2    1    6 ar
     3    2    3 ar
     4    2    7 1
     5    3    4 ar
     6    4    5 ar
     7    4   21 1
     8    5    6 ar
     9    6   22 1
    10    7    8 2
    11    8    9 ar
    12    8   13 ar
    13    9   10 ar
    14   10   11 ar
    15   11   12 ar
    16   12   13 ar
    17   12   14 1
    18   14   15 ar
    19   14   18 ar
    20   15   16 ar
    21   16   17 ar
    22   16   19 1
    23   17   18 ar
    24   19   20 1
    25    1   23 1
    26    3   24 1
    27    5   25 1
    28    7   26 1
    29    9   27 1
    30   10   28 1
    31   11   29 1
    32   13   30 1
    33   15   31 1
    34   17   32 1
    35   19   33 1
    36   19   34 1
    37   20   35 1
    38   21   36 1
    39   21   37 1
    40   21   38 1
    41   22   39 1
    42   22   40 1
    43   22   41 1
@<TRIPOS>SUBSTRUCTURE
     1    LIG68    1   GROUP 1   LIG 1
@<TRIPOS>MOLECULE
50436579
   34    36    1     0     0
SMALL
USER_CHARGES


@<TRIPOS>ATOM
      1 C1          9.9360  -19.5080    0.9600 C.ar      1    LIG69    0.0000
      2 C2          9.9520  -20.7580    0.3110 C.ar      1    LIG69    0.0000
      3 C3         11.1880  -21.2910   -0.1150 C.ar      1    LIG69    0.0000
      4 C4         12.3780  -20.5710    0.0780 C.ar      1    LIG69    0.0000
      5 C5         12.3470  -19.3170    0.7100 C.ar      1    LIG69    0.0000
      6 C6         11.1250  -18.7790    1.1590 C.ar      1    LIG69    0.0000
      7 N1          8.7690  -21.4110    0.1700 N.pl3     1    LIG69    0.0000
      8 C7          8.3620  -22.1170   -0.9120 C.ar      1    LIG69    0.0000
      9 N2          7.1350  -22.6880   -0.8760 N.pl3     1    LIG69    0.0000
     10 C8          6.6450  -23.4020   -1.9170 C.ar      1    LIG69    0.0000
     11 C9          7.4140  -23.5680   -3.0770 C.ar      1    LIG69    0.0000
     12 C10         8.6870  -22.9710   -3.1120 C.ar      1    LIG69    0.0000
     13 N3          9.1120  -22.2680   -2.0330 N.pl3     1    LIG69    0.0000
     14 C11         9.5380  -23.0750   -4.2230 C.ar      1    LIG69    0.0000
     15 S1         11.1050  -22.3300   -4.2310 S.2       1    LIG69    0.0000
     16 C12        11.3030  -22.9750   -5.8230 C.ar      1    LIG69    0.0000
     17 C13        10.2040  -23.7000   -6.2560 C.ar      1    LIG69    0.0000
     18 N4          9.2240  -23.7470   -5.3460 N.pl3     1    LIG69    0.0000
     19 C14        11.0740  -17.4720    1.8330 C.3       1    LIG69    0.0000
     20 H1          8.9897  -19.0986    1.3135 H         1    LIG69    0.0000
     21 H2         11.2187  -22.2681   -0.5970 H         1    LIG69    0.0000
     22 H3         13.3267  -20.9856   -0.2629 H         1    LIG69    0.0000
     23 H4         13.2718  -18.7582    0.8535 H         1    LIG69    0.0000
     24 H5          8.1163  -21.3646    0.9654 H         1    LIG69    0.0000
     25 H6          6.5566  -22.5759   -0.0311 H         1    LIG69    0.0000
     26 H7          5.6524  -23.8477   -1.8529 H         1    LIG69    0.0000
     27 H8          7.0377  -24.1411   -3.9244 H         1    LIG69    0.0000
     28 H9         10.0437  -21.8300   -2.0656 H         1    LIG69    0.0000
     29 H10        12.2000  -22.8267   -6.4243 H         1    LIG69    0.0000
     30 H11        10.1444  -24.1802   -7.2327 H         1    LIG69    0.0000
     31 H12         8.3315  -24.2409   -5.4887 H         1    LIG69    0.0000
     32 H13        12.0961  -17.0957    1.8764 H         1    LIG69    0.0000
     33 H14        10.4305  -16.8288    1.2328 H         1    LIG69    0.0000
     34 H15        10.6623  -17.6423    2.8278 H         1    LIG69    0.0000
@<TRIPOS>BOND
     1    1    2 ar
     2    1    6 ar
     3    2    3 ar
     4    2    7 1
     5    3    4 ar
     6    4    5 ar
     7    5    6 ar
     8    6   19 1
     9    7    8 1
    10    8    9 ar
    11    8   13 ar
    12    9   10 ar
    13   10   11 ar
    14   11   12 ar
    15   12   13 ar
    16   12   14 1
    17   14   15 ar
    18   14   18 ar
    19   15   16 ar
    20   16   17 ar
    21   17   18 ar
    22    1   20 1
    23    3   21 1
    24    4   22 1
    25    5   23 1
    26    7   24 1
    27    9   25 1
    28   10   26 1
    29   11   27 1
    30   13   28 1
    31   16   29 1
    32   17   30 1
    33   18   31 1
    34   19   32 1
    35   19   33 1
    36   19   34 1
@<TRIPOS>SUBSTRUCTURE
     1    LIG69    1   GROUP 1   LIG 1
@<TRIPOS>MOLECULE
50077180
   56    59    1     0     0
SMALL
USER_CHARGES


@<TRIPOS>ATOM
      1 C1         13.1640   -9.5710    0.6300 C.ar      1    LIG70    0.0000
      2 C2         13.0780  -10.8460    0.0240 C.ar      1    LIG70    0.0000
      3 C3         13.8170  -11.9340    0.5130 C.ar      1    LIG70    0.0000
      4 C4         14.0190   -9.4260    1.7500 C.ar      1    LIG70    0.0000
      5 C5         14.7690  -10.5090    2.2660 C.ar      1    LIG70    0.0000
      6 C6         14.6590  -11.7680    1.6230 C.ar      1    LIG70    0.0000
      7 N1         15.3730  -12.8260    2.0760 N.pl3     1    LIG70    0.0000
      8 C7         16.2170  -12.7660    3.1370 C.ar      1    LIG70    0.0000
      9 C8         16.3600  -11.5380    3.8100 C.ar      1    LIG70    0.0000
     10 C9         15.6350  -10.4040    3.3860 C.ar      1    LIG70    0.0000
     11 C10        12.4080   -8.4670    0.1290 C.ar      1    LIG70    0.0000
     12 C11        15.8070   -9.2350    4.0970 C.2       1    LIG70    0.0000
     13 O1         14.8530   -8.6000    4.5190 O.co2     1    LIG70   -0.5000
     14 O2         17.0170   -8.8020    4.4030 O.co2     1    LIG70   -0.5000
     15 C12        16.9130  -13.9260    3.5310 C.2       1    LIG70    0.0000
     16 N2         16.7340  -15.0710    2.8350 N.am      1    LIG70    0.0000
     17 O3         17.6750  -13.9180    4.5260 O.2       1    LIG70    0.0000
     18 C13        17.3550  -16.3110    3.1560 C.3       1    LIG70    0.0000
     19 C14        18.8650  -16.2550    2.8660 C.3       1    LIG70    0.0000
     20 C15        16.7220  -17.4350    2.3080 C.3       1    LIG70    0.0000
     21 C16        15.2730  -17.5890    2.5530 C.ar      1    LIG70    0.0000
     22 C17        14.3380  -17.3030    1.5370 C.ar      1    LIG70    0.0000
     23 C18        12.9610  -17.4450    1.7750 C.ar      1    LIG70    0.0000
     24 C19        12.5050  -17.8780    3.0320 C.ar      1    LIG70    0.0000
     25 C20        13.4300  -18.1690    4.0500 C.ar      1    LIG70    0.0000
     26 C21        14.8070  -18.0240    3.8110 C.ar      1    LIG70    0.0000
     27 C22        11.1070   -8.6500   -0.3950 C.ar      1    LIG70    0.0000
     28 C23        10.3620   -7.5650   -0.8810 C.ar      1    LIG70    0.0000
     29 C24        10.9050   -6.2730   -0.8510 C.ar      1    LIG70    0.0000
     30 C25        12.2000   -6.0430   -0.3390 C.ar      1    LIG70    0.0000
     31 C26        12.9340   -7.1520    0.1430 C.ar      1    LIG70    0.0000
     32 C27        12.7440   -4.6590   -0.3220 C.3       1    LIG70    0.0000
     33 F1         14.0170   -4.5600    0.1900 F         1    LIG70    0.0000
     34 F2         12.7860   -4.1510   -1.5990 F         1    LIG70    0.0000
     35 F3         11.9410   -3.8460    0.4420 F         1    LIG70    0.0000
     36 O4         11.1790  -18.0140    3.2550 O.2       1    LIG70    0.0000
     37 H1         12.4261  -10.9860   -0.8383 H         1    LIG70    0.0000
     38 H2         13.7369  -12.9081    0.0305 H         1    LIG70    0.0000
     39 H3         14.1016   -8.4503    2.2289 H         1    LIG70    0.0000
     40 H4         15.2696  -13.7270    1.5877 H         1    LIG70    0.0000
     41 H5         17.0343  -11.4626    4.6631 H         1    LIG70    0.0000
     42 H6         16.1068  -15.0444    2.0184 H         1    LIG70    0.0000
     43 H7         17.2061  -16.5087    4.2175 H         1    LIG70    0.0000
     44 H8         19.2768  -17.2286    3.1316 H         1    LIG70    0.0000
     45 H9         18.9777  -16.0438    1.8026 H         1    LIG70    0.0000
     46 H10        19.2788  -15.4578    3.4836 H         1    LIG70    0.0000
     47 H11        17.2019  -18.3856    2.5405 H         1    LIG70    0.0000
     48 H12        16.8226  -17.1573    1.2588 H         1    LIG70    0.0000
     49 H13        14.6864  -16.9692    0.5596 H         1    LIG70    0.0000
     50 H14        12.2455  -17.2192    0.9843 H         1    LIG70    0.0000
     51 H15        13.0788  -18.5072    5.0249 H         1    LIG70    0.0000
     52 H16        15.5203  -18.2494    4.6038 H         1    LIG70    0.0000
     53 H17        10.6760   -9.6508   -0.4217 H         1    LIG70    0.0000
     54 H18         9.3613   -7.7266   -1.2818 H         1    LIG70    0.0000
     55 H19        10.3192   -5.4347   -1.2282 H         1    LIG70    0.0000
     56 H20        13.9368   -6.9893    0.5380 H         1    LIG70    0.0000
@<TRIPOS>BOND
     1    1    2 ar
     2    1    4 ar
     3    1   11 1
     4    2    3 ar
     5    3    6 ar
     6    4    5 ar
     7    5    6 ar
     8    5   10 ar
     9    6    7 ar
    10    7    8 ar
    11    8    9 ar
    12    8   15 1
    13    9   10 ar
    14   10   12 1
    15   11   27 ar
    16   11   31 ar
    17   12   13 am
    18   12   14 am
    19   15   16 am
    20   15   17 2
    21   16   18 1
    22   18   19 1
    23   18   20 1
    24   20   21 1
    25   21   22 ar
    26   21   26 ar
    27   22   23 ar
    28   23   24 ar
    29   24   25 ar
    30   24   36 2
    31   25   26 ar
    32   27   28 ar
    33   28   29 ar
    34   29   30 ar
    35   30   31 ar
    36   30   32 1
    37   32   33 1
    38   32   34 1
    39   32   35 1
    40    2   37 1
    41    3   38 1
    42    4   39 1
    43    7   40 1
    44    9   41 1
    45   16   42 1
    46   18   43 1
    47   19   44 1
    48   19   45 1
    49   19   46 1
    50   20   47 1
    51   20   48 1
    52   22   49 1
    53   23   50 1
    54   25   51 1
    55   26   52 1
    56   27   53 1
    57   28   54 1
    58   29   55 1
    59   31   56 1
@<TRIPOS>SUBSTRUCTURE
     1    LIG70    1   GROUP 1   LIG 1
@<TRIPOS>MOLECULE
50077181
   58    61    1     0     0
SMALL
USER_CHARGES


@<TRIPOS>ATOM
      1 C1         13.5340  -25.7510    0.4420 C.ar      1    LIG71    0.0000
      2 C2         13.6440  -26.9310   -0.3310 C.ar      1    LIG71    0.0000
      3 C3         14.1950  -28.1030    0.2080 C.ar      1    LIG71    0.0000
      4 C4         13.9950  -25.7910    1.7800 C.ar      1    LIG71    0.0000
      5 C5         14.5430  -26.9640    2.3490 C.ar      1    LIG71    0.0000
      6 C6         14.6440  -28.1210    1.5370 C.ar      1    LIG71    0.0000
      7 N1         15.1800  -29.2590    2.0390 N.pl3     1    LIG71    0.0000
      8 C7         15.6430  -29.3760    3.3090 C.ar      1    LIG71    0.0000
      9 C8         15.5630  -28.2550    4.1570 C.ar      1    LIG71    0.0000
     10 C9         15.0100  -27.0450    3.6870 C.ar      1    LIG71    0.0000
     11 C10        12.9760  -24.5580   -0.1100 C.ar      1    LIG71    0.0000
     12 C11        14.9380  -25.9850    4.5660 C.2       1    LIG71    0.0000
     13 O1         15.9080  -25.6440    5.2250 O.co2     1    LIG71   -0.5000
     14 O2         13.8030  -25.3380    4.7630 O.co2     1    LIG71   -0.5000
     15 C12        16.1810  -30.6060    3.7360 C.2       1    LIG71    0.0000
     16 N2         16.3420  -31.6040    2.8380 N.am      1    LIG71    0.0000
     17 O3         16.5030  -30.7940    4.9320 O.2       1    LIG71    0.0000
     18 C13        16.8430  -32.9010    3.1560 C.3       1    LIG71    0.0000
     19 C14        18.2260  -32.8450    3.5700 C.2       1    LIG71    0.0000
     20 C15        16.7230  -33.8150    1.9150 C.3       1    LIG71    0.0000
     21 C16        15.3290  -33.9530    1.4400 C.ar      1    LIG71    0.0000
     22 O4         19.1270  -32.3080    2.7470 O.2       1    LIG71    0.0000
     23 O5         18.5480  -33.3040    4.6560 O.co2     1    LIG71    0.0000
     24 C17        20.4900  -32.2130    3.1610 C.2       1    LIG71    0.0000
     25 C18        14.3680  -34.6050    2.2390 C.ar      1    LIG71    0.0000
     26 C19        13.0390  -34.7300    1.7960 C.ar      1    LIG71    0.0000
     27 C20        12.6610  -34.2020    0.5490 C.ar      1    LIG71    0.0000
     28 C21        13.6140  -33.5520   -0.2540 C.ar      1    LIG71    0.0000
     29 C22        14.9420  -33.4310    0.1890 C.ar      1    LIG71    0.0000
     30 F1         11.4290  -34.3150    0.1390 F         1    LIG71    0.0000
     31 C23        12.1900  -23.6870    0.6790 C.ar      1    LIG71    0.0000
     32 C24        11.6420  -22.5140    0.1380 C.ar      1    LIG71    0.0000
     33 C25        11.8700  -22.1900   -1.2070 C.ar      1    LIG71    0.0000
     34 C26        12.6470  -23.0310   -2.0320 C.ar      1    LIG71    0.0000
     35 C27        13.1890  -24.2070   -1.4660 C.ar      1    LIG71    0.0000
     36 C28        12.8700  -22.6540   -3.4530 C.3       1    LIG71    0.0000
     37 F2         13.6430  -23.5480   -4.1580 F         1    LIG71    0.0000
     38 F3         11.6680  -22.5600   -4.1120 F         1    LIG71    0.0000
     39 F4         13.5020  -21.4360   -3.5260 F         1    LIG71    0.0000
     40 H1         13.2945  -26.9293   -1.3634 H         1    LIG71    0.0000
     41 H2         14.2743  -29.0001   -0.4060 H         1    LIG71    0.0000
     42 H3         13.9254  -24.8904    2.3901 H         1    LIG71    0.0000
     43 H4         15.2395  -30.0817    1.4221 H         1    LIG71    0.0000
     44 H5         15.9299  -28.3222    5.1812 H         1    LIG71    0.0000
     45 H6         16.0856  -31.4149    1.8585 H         1    LIG71    0.0000
     46 H7         16.2530  -33.2995    3.9813 H         1    LIG71    0.0000
     47 H8         17.0939  -34.8116    2.1543 H         1    LIG71    0.0000
     48 H9         17.2742  -33.3452    1.1004 H         1    LIG71    0.0000
     49 H10        21.2329  -31.7753    2.4942 H         1    LIG71    0.0000
     50 H11        20.7878  -32.5782    4.1439 H         1    LIG71    0.0000
     51 H12        14.6568  -35.0151    3.2067 H         1    LIG71    0.0000
     52 H13        12.3021  -35.2362    2.4195 H         1    LIG71    0.0000
     53 H14        13.3228  -33.1416   -1.2209 H         1    LIG71    0.0000
     54 H15        15.6783  -32.9298   -0.4393 H         1    LIG71    0.0000
     55 H16        12.0066  -23.9309    1.7254 H         1    LIG71    0.0000
     56 H17        11.0394  -21.8550    0.7630 H         1    LIG71    0.0000
     57 H18        11.4417  -21.2770   -1.6206 H         1    LIG71    0.0000
     58 H19        13.7904  -24.8653   -2.0930 H         1    LIG71    0.0000
@<TRIPOS>BOND
     1    1    2 ar
     2    1    4 ar
     3    1   11 1
     4    2    3 ar
     5    3    6 ar
     6    4    5 ar
     7    5    6 ar
     8    5   10 ar
     9    6    7 ar
    10    7    8 ar
    11    8    9 ar
    12    8   15 1
    13    9   10 ar
    14   10   12 1
    15   11   31 ar
    16   11   35 ar
    17   12   13 am
    18   12   14 am
    19   15   16 am
    20   15   17 2
    21   16   18 1
    22   18   19 1
    23   18   20 1
    24   19   22 1
    25   19   23 2
    26   20   21 1
    27   21   25 ar
    28   21   29 ar
    29   22   24 2
    30   25   26 ar
    31   26   27 ar
    32   27   28 ar
    33   27   30 2
    34   28   29 ar
    35   31   32 ar
    36   32   33 ar
    37   33   34 ar
    38   34   35 ar
    39   34   36 1
    40   36   37 1
    41   36   38 1
    42   36   39 1
    43    2   40 1
    44    3   41 1
    45    4   42 1
    46    7   43 1
    47    9   44 1
    48   16   45 1
    49   18   46 1
    50   20   47 1
    51   20   48 1
    52   24   49 1
    53   24   50 1
    54   25   51 1
    55   26   52 1
    56   28   53 1
    57   29   54 1
    58   31   55 1
    59   32   56 1
    60   33   57 1
    61   35   58 1
@<TRIPOS>SUBSTRUCTURE
     1    LIG71    1   GROUP 1   LIG 1
@<TRIPOS>MOLECULE
50077204
   58    61    1     0     0
SMALL
USER_CHARGES


@<TRIPOS>ATOM
      1 C1          5.0420   -4.3520    1.6490 C.ar      1    LIG72    0.0000
      2 C2          4.6900   -5.1800    0.5590 C.ar      1    LIG72    0.0000
      3 C3          5.6540   -5.6880   -0.3200 C.ar      1    LIG72    0.0000
      4 C4          6.4190   -4.0530    1.8050 C.ar      1    LIG72    0.0000
      5 C5          7.4300   -4.5520    0.9440 C.ar      1    LIG72    0.0000
      6 C6          7.0070   -5.3800   -0.1290 C.ar      1    LIG72    0.0000
      7 N1          7.9050   -5.8960   -0.9980 N.pl3     1    LIG72    0.0000
      8 C7          9.2370   -5.6710   -0.9180 C.ar      1    LIG72    0.0000
      9 C8          9.7130   -4.8560    0.1250 C.ar      1    LIG72    0.0000
     10 C9          8.8280   -4.2820    1.0700 C.ar      1    LIG72    0.0000
     11 N2          4.0840   -3.8530    2.5220 N.pl3     1    LIG72    0.0000
     12 C10         9.4260   -3.4780    2.0840 C.2       1    LIG72    0.0000
     13 O1          8.7910   -2.9070    2.9970 O.co2     1    LIG72   -0.5000
     14 O2         10.7630   -3.2750    2.1270 O.co2     1    LIG72   -0.5000
     15 C11        10.0940   -6.2630   -1.8670 C.2       1    LIG72    0.0000
     16 N3          9.5670   -7.0400   -2.8410 N.am      1    LIG72    0.0000
     17 O3         11.3340   -6.0930   -1.8110 O.2       1    LIG72    0.0000
     18 C12        10.3290   -7.7280   -3.8320 C.3       1    LIG72    0.0000
     19 C13         9.8880   -7.3020   -5.1360 C.2       1    LIG72    0.0000
     20 C14        10.1250   -9.2530   -3.6780 C.3       1    LIG72    0.0000
     21 C15        10.5690   -9.7530   -2.3600 C.ar      1    LIG72    0.0000
     22 O4          8.6080   -7.4620   -5.4730 O.2       1    LIG72    0.0000
     23 O5         10.6920   -6.8020   -5.9100 O.co2     1    LIG72    0.0000
     24 C16         8.1540   -7.0150   -6.7510 C.2       1    LIG72    0.0000
     25 C17        11.9300   -9.6890   -1.9970 C.ar      1    LIG72    0.0000
     26 C18        12.3540  -10.1470   -0.7370 C.ar      1    LIG72    0.0000
     27 C19        11.4200  -10.6750    0.1700 C.ar      1    LIG72    0.0000
     28 C20        10.0620  -10.7460   -0.1850 C.ar      1    LIG72    0.0000
     29 C21         9.6390  -10.2880   -1.4440 C.ar      1    LIG72    0.0000
     30 O6         11.8330  -11.1120    1.3800 O.2       1    LIG72    0.0000
     31 C22         2.6720   -3.8290    2.2430 C.3       1    LIG72    0.0000
     32 C23         2.1660   -2.3770    2.2980 C.3       1    LIG72    0.0000
     33 O7          2.5360   -1.7720    3.5350 O.3       1    LIG72    0.0000
     34 C24         3.9260   -1.8250    3.8480 C.3       1    LIG72    0.0000
     35 C25         4.3830   -3.2900    3.8130 C.3       1    LIG72    0.0000
     36 H1          3.6411   -5.4294    0.3986 H         1    LIG72    0.0000
     37 H2          5.3517   -6.3230   -1.1528 H         1    LIG72    0.0000
     38 H3          6.7166   -3.4056    2.6299 H         1    LIG72    0.0000
     39 H4          7.5566   -6.4924   -1.7620 H         1    LIG72    0.0000
     40 H5         10.7826   -4.6627    0.2074 H         1    LIG72    0.0000
     41 H6          8.5425   -7.1423   -2.8693 H         1    LIG72    0.0000
     42 H7         11.3882   -7.5009   -3.7112 H         1    LIG72    0.0000
     43 H8         10.6905   -9.7821   -4.4450 H         1    LIG72    0.0000
     44 H9          9.0554   -9.4554   -3.7340 H         1    LIG72    0.0000
     45 H10         7.1089   -7.1425   -7.0333 H         1    LIG72    0.0000
     46 H11         8.8525   -6.5463   -7.4442 H         1    LIG72    0.0000
     47 H12        12.6585   -9.2816   -2.6980 H         1    LIG72    0.0000
     48 H13        13.4078  -10.0924   -0.4638 H         1    LIG72    0.0000
     49 H14         9.3364  -11.1567    0.5170 H         1    LIG72    0.0000
     50 H15         8.5848  -10.3464   -1.7150 H         1    LIG72    0.0000
     51 H16         2.1845   -4.4121    3.0244 H         1    LIG72    0.0000
     52 H17         2.4862   -4.2951    1.2754 H         1    LIG72    0.0000
     53 H18         1.0841   -2.3119    2.1827 H         1    LIG72    0.0000
     54 H19         2.6638   -1.7998    1.5188 H         1    LIG72    0.0000
     55 H20         4.0403   -1.4286    4.8569 H         1    LIG72    0.0000
     56 H21         4.4824   -1.1906    3.1580 H         1    LIG72    0.0000
     57 H22         5.4650   -3.3347    3.9371 H         1    LIG72    0.0000
     58 H23         3.9050   -3.8886    4.5884 H         1    LIG72    0.0000
@<TRIPOS>BOND
     1    1    2 ar
     2    1    4 ar
     3    1   11 1
     4    2    3 ar
     5    3    6 ar
     6    4    5 ar
     7    5    6 ar
     8    5   10 ar
     9    6    7 ar
    10    7    8 ar
    11    8    9 ar
    12    8   15 1
    13    9   10 ar
    14   10   12 1
    15   11   31 1
    16   11   35 1
    17   12   13 am
    18   12   14 am
    19   15   16 am
    20   15   17 2
    21   16   18 1
    22   18   19 1
    23   18   20 1
    24   19   22 1
    25   19   23 2
    26   20   21 1
    27   21   25 ar
    28   21   29 ar
    29   22   24 2
    30   25   26 ar
    31   26   27 ar
    32   27   28 ar
    33   27   30 2
    34   28   29 ar
    35   31   32 1
    36   32   33 1
    37   33   34 1
    38   34   35 1
    39    2   36 1
    40    3   37 1
    41    4   38 1
    42    7   39 1
    43    9   40 1
    44   16   41 1
    45   18   42 1
    46   20   43 1
    47   20   44 1
    48   24   45 1
    49   24   46 1
    50   25   47 1
    51   26   48 1
    52   28   49 1
    53   29   50 1
    54   31   51 1
    55   31   52 1
    56   32   53 1
    57   32   54 1
    58   34   55 1
    59   34   56 1
    60   35   57 1
    61   35   58 1
@<TRIPOS>SUBSTRUCTURE
     1    LIG72    1   GROUP 1   LIG 1
@<TRIPOS>MOLECULE
50851835
   53    56    1     0     0
SMALL
USER_CHARGES


@<TRIPOS>ATOM
      1 C1         -2.4910  -18.3160    0.7170 C.ar      1    LIG73    0.0000
      2 C2         -2.5010  -19.7090    0.9430 C.ar      1    LIG73    0.0000
      3 C3         -1.6210  -20.5140    0.1940 C.ar      1    LIG73    0.0000
      4 C4         -0.7510  -19.9810   -0.7630 C.2       1    LIG73    0.0000
      5 C5         -0.7370  -18.5900   -0.9880 C.2       1    LIG73    0.0000
      6 C6         -1.6110  -17.7660   -0.2400 C.ar      1    LIG73    0.0000
      7 N1          0.1500  -18.1680   -1.9300 N.am      1    LIG73    0.0000
      8 C7          0.4740  -16.9140   -2.3490 C.2       1    LIG73    0.0000
      9 N2          1.4060  -16.6980   -3.3120 N.am      1    LIG73    0.0000
     10 O1         -0.0290  -15.8850   -1.8480 O.2       1    LIG73    0.0000
     11 C8          2.0720  -17.6330   -4.0380 C.2       1    LIG73    0.0000
     12 N3          1.8240  -18.9640   -3.9460 N.am      1    LIG73    0.0000
     13 C9          2.4780  -19.9160   -4.6580 C.2       1    LIG73    0.0000
     14 C10         3.4930  -19.4960   -5.5390 C.ar      1    LIG73    0.0000
     15 N4          3.7410  -18.1650   -5.6480 N.pl3     1    LIG73    0.0000
     16 C11         3.0670  -17.2240   -4.9400 C.ar      1    LIG73    0.0000
     17 C12         4.1840  -20.3340   -6.2500 C.1       1    LIG73    0.0000
     18 N5          4.7940  -21.0750   -6.8800 N.2       1    LIG73    1.0000
     19 O2          2.1540  -21.2280   -4.4860 O.3       1    LIG73    0.0000
     20 O3          0.0970  -20.7920   -1.4710 O.2       1    LIG73    0.0000
     21 C13         0.1400  -22.2100   -1.2560 C.3       1    LIG73    0.0000
     22 C14         0.7770  -21.5940   -4.3530 C.3       1    LIG73    0.0000
     23 C15         1.1560  -22.8860   -2.1850 C.3       1    LIG73    0.0000
     24 C16         0.6620  -22.9500   -3.6410 C.3       1    LIG73    0.0000
     25 Cl1        -3.5160  -17.2740    1.5790 Cl        1    LIG73    0.0000
     26 N6         -3.3310  -20.2920    1.8530 N.pl3     1    LIG73    0.0000
     27 C17        -3.3350  -21.6950    2.1000 C.3       1    LIG73    0.0000
     28 C18        -4.3520  -22.0980    3.0650 C.ar      1    LIG73    0.0000
     29 C19        -5.3590  -23.0110    2.7770 C.ar      1    LIG73    0.0000
     30 N7         -6.1240  -23.2910    3.8350 N.pl3     1    LIG73    0.0000
     31 C20        -5.7280  -22.6170    4.9240 C.ar      1    LIG73    0.0000
     32 S1         -4.3590  -21.5760    4.7140 S.2       1    LIG73    0.0000
     33 H1         -1.6177  -21.5903    0.3661 H         1    LIG73    0.0000
     34 H2         -1.6046  -16.6887   -0.4055 H         1    LIG73    0.0000
     35 H3          0.6621  -18.9245   -2.4058 H         1    LIG73    0.0000
     36 H4          1.6338  -15.7142   -3.5150 H         1    LIG73    0.0000
     37 H5          1.0903  -19.2721   -3.2920 H         1    LIG73    0.0000
     38 H6          4.4761  -17.8551   -6.2995 H         1    LIG73    0.0000
     39 H7          3.2948  -16.1660   -5.0697 H         1    LIG73    0.0000
     40 H8         -0.8542  -22.5795   -1.5071 H         1    LIG73    0.0000
     41 H9          0.3786  -22.3916   -0.2081 H         1    LIG73    0.0000
     42 H10         0.3836  -21.6884   -5.3652 H         1    LIG73    0.0000
     43 H11         0.2479  -20.8035   -3.8209 H         1    LIG73    0.0000
     44 H12         1.3059  -23.9067   -1.8332 H         1    LIG73    0.0000
     45 H13         2.0762  -22.3022   -2.1624 H         1    LIG73    0.0000
     46 H14         1.2825  -23.6672   -4.1784 H         1    LIG73    0.0000
     47 H15        -0.3887  -23.2400   -3.6317 H         1    LIG73    0.0000
     48 H16        -3.9812  -19.6946    2.3833 H         1    LIG73    0.0000
     49 H17        -2.3605  -21.9440    2.5200 H         1    LIG73    0.0000
     50 H18        -3.5298  -22.1990    1.1534 H         1    LIG73    0.0000
     51 H19        -5.5087  -23.4521    1.7915 H         1    LIG73    0.0000
     52 H20        -6.9201  -23.9443    3.8166 H         1    LIG73    0.0000
     53 H21        -6.2362  -22.7177    5.8830 H         1    LIG73    0.0000
@<TRIPOS>BOND
     1    1    2 ar
     2    1    6 ar
     3    1   25 2
     4    2    3 ar
     5    2   26 2
     6    3    4 ar
     7    4    5 ar
     8    4   20 2
     9    5    6 ar
    10    5    7 2
    11    7    8 1
    12    8    9 1
    13    8   10 2
    14    9   11 1
    15   11   12 ar
    16   11   16 ar
    17   12   13 ar
    18   13   14 ar
    19   13   19 1
    20   14   15 ar
    21   14   17 1
    22   15   16 ar
    23   17   18 2
    24   19   22 1
    25   20   21 1
    26   21   23 1
    27   22   24 1
    28   23   24 1
    29   26   27 1
    30   27   28 1
    31   28   29 ar
    32   28   32 ar
    33   29   30 ar
    34   30   31 ar
    35   31   32 ar
    36    3   33 1
    37    6   34 1
    38    7   35 1
    39    9   36 1
    40   12   37 1
    41   15   38 1
    42   16   39 1
    43   21   40 1
    44   21   41 1
    45   22   42 1
    46   22   43 1
    47   23   44 1
    48   23   45 1
    49   24   46 1
    50   24   47 1
    51   26   48 1
    52   27   49 1
    53   27   50 1
    54   29   51 1
    55   30   52 1
    56   31   53 1
@<TRIPOS>SUBSTRUCTURE
     1    LIG73    1   GROUP 1   LIG 1
@<TRIPOS>MOLECULE
50459449
   45    48    1     0     0
SMALL
USER_CHARGES


@<TRIPOS>ATOM
      1 C1          9.2010   -8.0200    0.4260 C.ar      1    LIG74    0.0000
      2 C2          8.5210   -9.1600    0.8980 C.ar      1    LIG74    0.0000
      3 N1          9.0830   -9.8710    1.9100 N.ar      1    LIG74    0.0000
      4 C3         10.4200   -7.6410    1.0150 C.ar      1    LIG74    0.0000
      5 C4         10.9080   -8.4380    2.0570 C.ar      1    LIG74    0.0000
      6 N2         10.2220   -9.5220    2.4500 N.pl3     1    LIG74    0.0000
      7 C5         10.9230  -10.0760    3.4540 C.ar      1    LIG74    0.0000
      8 N3         12.0100   -9.2980    3.6430 N.ar      1    LIG74    0.0000
      9 N4         12.0120   -8.3090    2.8020 N.ar      1    LIG74    0.0000
     10 C6         10.6250  -11.2370    4.2100 C.ar      1    LIG74    0.0000
     11 C7         11.3030  -11.4760    5.4240 C.ar      1    LIG74    0.0000
     12 C8         11.0170  -12.6130    6.1960 C.ar      1    LIG74    0.0000
     13 C9         10.0550  -13.5340    5.7560 C.ar      1    LIG74    0.0000
     14 C10         9.3690  -13.3400    4.5380 C.ar      1    LIG74    0.0000
     15 C11         9.6660  -12.1830    3.7810 C.ar      1    LIG74    0.0000
     16 C12         8.3680  -14.3460    4.0920 C.3       1    LIG74    0.0000
     17 F1          7.8050  -14.0760    2.8660 F         1    LIG74    0.0000
     18 F2          8.9520  -15.5860    3.9920 F         1    LIG74    0.0000
     19 F3          7.3400  -14.4200    5.0000 F         1    LIG74    0.0000
     20 N5          7.3410   -9.5300    0.3570 N.pl3     1    LIG74    0.0000
     21 C13         6.5880  -10.6490    0.8090 C.3       1    LIG74    0.0000
     22 C14         5.9880  -10.3890    2.2070 C.3       1    LIG74    0.0000
     23 C15         5.1140  -11.5700    2.6570 C.3       1    LIG74    0.0000
     24 C16         3.9940  -11.8310    1.6400 C.3       1    LIG74    0.0000
     25 C17         4.5930  -12.1000    0.2510 C.3       1    LIG74    0.0000
     26 C18         5.4540  -10.9100   -0.1980 C.3       1    LIG74    0.0000
     27 O1          3.2380  -12.9590    2.0550 O.3       1    LIG74    0.0000
     28 H1          8.7836   -7.4340   -0.3928 H         1    LIG74    0.0000
     29 H2         10.9641   -6.7605    0.6734 H         1    LIG74    0.0000
     30 H3         12.0584  -10.7689    5.7668 H         1    LIG74    0.0000
     31 H4         11.5420  -12.7800    7.1365 H         1    LIG74    0.0000
     32 H5          9.8341  -14.4118    6.3632 H         1    LIG74    0.0000
     33 H6          9.1409  -12.0159    2.8406 H         1    LIG74    0.0000
     34 H7          6.9662   -8.9729   -0.4240 H         1    LIG74    0.0000
     35 H8          7.2456  -11.5152    0.8821 H         1    LIG74    0.0000
     36 H9          5.3705   -9.4918    2.1656 H         1    LIG74    0.0000
     37 H10         6.8026  -10.2680    2.9210 H         1    LIG74    0.0000
     38 H11         4.6666  -11.3319    3.6220 H         1    LIG74    0.0000
     39 H12         5.7365  -12.4616    2.7327 H         1    LIG74    0.0000
     40 H13         3.3497  -10.9535    1.5844 H         1    LIG74    0.0000
     41 H14         3.7831  -12.2431   -0.4643 H         1    LIG74    0.0000
     42 H15         5.2172  -12.9923    0.2995 H         1    LIG74    0.0000
     43 H16         5.8899  -11.1375   -1.1708 H         1    LIG74    0.0000
     44 H17         4.8235  -10.0228   -0.2566 H         1    LIG74    0.0000
     45 H18         2.8555  -12.7393    2.9857 H         1    LIG74    0.0000
@<TRIPOS>BOND
     1    1    2 ar
     2    1    4 ar
     3    2    3 ar
     4    2   20 2
     5    3    6 ar
     6    4    5 ar
     7    5    6 ar
     8    5    9 ar
     9    6    7 ar
    10    7    8 ar
    11    7   10 1
    12    8    9 ar
    13   10   11 ar
    14   10   15 ar
    15   11   12 ar
    16   12   13 ar
    17   13   14 ar
    18   14   15 ar
    19   14   16 1
    20   16   17 1
    21   16   18 1
    22   16   19 1
    23   20   21 1
    24   21   22 1
    25   21   26 1
    26   22   23 1
    27   23   24 1
    28   24   25 1
    29   24   27 1
    30   25   26 1
    31    1   28 1
    32    4   29 1
    33   11   30 1
    34   12   31 1
    35   13   32 1
    36   15   33 1
    37   20   34 1
    38   21   35 1
    39   22   36 1
    40   22   37 1
    41   23   38 1
    42   23   39 1
    43   24   40 1
    44   25   41 1
    45   25   42 1
    46   26   43 1
    47   26   44 1
    48   27   45 1
@<TRIPOS>SUBSTRUCTURE
     1    LIG74    1   GROUP 1   LIG 1
@<TRIPOS>MOLECULE
50579966
   57    60    1     0     0
SMALL
USER_CHARGES


@<TRIPOS>ATOM
      1 C1         -2.5360  -29.6750    0.6850 C.ar      1    LIG75    0.0000
      2 C2         -2.4110  -31.0710    0.7260 C.ar      1    LIG75    0.0000
      3 N1         -1.1910  -31.6490    0.6250 N.pl3     1    LIG75    0.0000
      4 C3         -0.0660  -30.9100    0.4840 C.ar      1    LIG75    0.0000
      5 N2         -0.1800  -29.5600    0.4440 N.pl3     1    LIG75    0.0000
      6 C4         -1.3660  -28.9090    0.5380 C.ar      1    LIG75    0.0000
      7 N3          1.1300  -31.5340    0.3920 N.pl3     1    LIG75    0.0000
      8 C5          2.2990  -30.8670    0.2640 C.ar      1    LIG75    0.0000
      9 C6          3.0430  -30.5250    1.4080 C.ar      1    LIG75    0.0000
     10 C7          4.2350  -29.7910    1.2810 C.ar      1    LIG75    0.0000
     11 C8          4.6950  -29.3950    0.0100 C.ar      1    LIG75    0.0000
     12 C9          3.9560  -29.7530   -1.1340 C.ar      1    LIG75    0.0000
     13 C10         2.7640  -30.4870   -1.0090 C.ar      1    LIG75    0.0000
     14 C11        -1.4160  -27.5010    0.4900 C.ar      1    LIG75    0.0000
     15 S1         -2.9200  -26.6480    0.6170 S.2       1    LIG75    0.0000
     16 C12        -2.0150  -25.1810    0.4680 C.ar      1    LIG75    0.0000
     17 N4         -0.6920  -25.3410    0.3350 N.pl3     1    LIG75    0.0000
     18 C13        -0.3290  -26.6310    0.3440 C.ar      1    LIG75    0.0000
     19 C14         1.0820  -27.0150    0.2100 C.3       1    LIG75    0.0000
     20 N5          5.8370  -28.6680   -0.1080 N.pl3     1    LIG75    0.0000
     21 C15         7.0950  -29.1710    0.3460 C.3       1    LIG75    0.0000
     22 C16         8.0880  -29.1800   -0.8280 C.3       1    LIG75    0.0000
     23 N6          8.0790  -27.9070   -1.4580 N.pl3     1    LIG75    0.0000
     24 C17         6.8340  -27.3880   -1.9030 C.3       1    LIG75    0.0000
     25 C18         5.8450  -27.3790   -0.7260 C.3       1    LIG75    0.0000
     26 C19        -2.6550  -23.8680    0.4890 C.3       1    LIG75    0.0000
     27 S2          9.4830  -26.9800   -1.5580 S.O2      1    LIG75    0.0000
     28 C20         9.4240  -26.0350   -0.0290 C.3       1    LIG75    0.0000
     29 O1         10.7550  -27.9190   -1.3930 O.2       1    LIG75    0.0000
     30 O2          9.3120  -25.8880   -2.7020 O.2       1    LIG75    0.0000
     31 H1         -3.5124  -29.1971    0.7648 H         1    LIG75    0.0000
     32 H2         -3.2990  -31.6928    0.8396 H         1    LIG75    0.0000
     33 H3         -1.1172  -32.6759    0.6562 H         1    LIG75    0.0000
     34 H4          0.6778  -29.0000    0.3368 H         1    LIG75    0.0000
     35 H5          1.1514  -32.5634    0.4207 H         1    LIG75    0.0000
     36 H6          2.6944  -30.8298    2.3947 H         1    LIG75    0.0000
     37 H7          4.8064  -29.5269    2.1708 H         1    LIG75    0.0000
     38 H8          4.3104  -29.4592   -2.1220 H         1    LIG75    0.0000
     39 H9          2.1987  -30.7624   -1.8993 H         1    LIG75    0.0000
     40 H10        -0.0278  -24.5599    0.2368 H         1    LIG75    0.0000
     41 H11         1.6557  -26.0930    0.1160 H         1    LIG75    0.0000
     42 H12         1.3487  -27.5681    1.1106 H         1    LIG75    0.0000
     43 H13         1.1603  -27.6339   -0.6838 H         1    LIG75    0.0000
     44 H14         6.9216  -30.1930    0.6831 H         1    LIG75    0.0000
     45 H15         7.4439  -28.5715    1.1868 H         1    LIG75    0.0000
     46 H16         7.8652  -29.9508   -1.5658 H         1    LIG75    0.0000
     47 H17         9.0982  -29.3294   -0.4468 H         1    LIG75    0.0000
     48 H18         6.4728  -28.0657   -2.6766 H         1    LIG75    0.0000
     49 H19         6.9862  -26.4003   -2.3383 H         1    LIG75    0.0000
     50 H20         6.1863  -26.6709    0.0291 H         1    LIG75    0.0000
     51 H21         4.8321  -27.1171   -1.0318 H         1    LIG75    0.0000
     52 H22        -1.8641  -23.1262    0.3782 H         1    LIG75    0.0000
     53 H23        -3.3554  -23.8415   -0.3458 H         1    LIG75    0.0000
     54 H24        -3.1644  -23.7771    1.4484 H         1    LIG75    0.0000
     55 H25        10.3093  -25.3994   -0.0129 H         1    LIG75    0.0000
     56 H26         8.5050  -25.4493   -0.0516 H         1    LIG75    0.0000
     57 H27         9.4263  -26.7539    0.7903 H         1    LIG75    0.0000
@<TRIPOS>BOND
     1    1    2 ar
     2    1    6 ar
     3    2    3 ar
     4    3    4 ar
     5    4    5 ar
     6    4    7 2
     7    5    6 ar
     8    6   14 1
     9    7    8 1
    10    8    9 ar
    11    8   13 ar
    12    9   10 ar
    13   10   11 ar
    14   11   12 ar
    15   11   20 1
    16   12   13 ar
    17   14   15 ar
    18   14   18 ar
    19   15   16 ar
    20   16   17 ar
    21   16   26 1
    22   17   18 ar
    23   18   19 1
    24   20   21 1
    25   20   25 1
    26   21   22 1
    27   22   23 1
    28   23   24 1
    29   23   27 1
    30   24   25 1
    31   27   28 1
    32   27   29 2
    33   27   30 2
    34    1   31 1
    35    2   32 1
    36    3   33 1
    37    5   34 1
    38    7   35 1
    39    9   36 1
    40   10   37 1
    41   12   38 1
    42   13   39 1
    43   17   40 1
    44   19   41 1
    45   19   42 1
    46   19   43 1
    47   21   44 1
    48   21   45 1
    49   22   46 1
    50   22   47 1
    51   24   48 1
    52   24   49 1
    53   25   50 1
    54   25   51 1
    55   26   52 1
    56   26   53 1
    57   26   54 1
    58   28   55 1
    59   28   56 1
    60   28   57 1
@<TRIPOS>SUBSTRUCTURE
     1    LIG75    1   GROUP 1   LIG 1
@<TRIPOS>MOLECULE
50077206
   55    58    1     0     0
SMALL
USER_CHARGES


@<TRIPOS>ATOM
      1 C1         11.8220   -5.4450    0.4560 C.ar      1    LIG76    0.0000
      2 C2         11.7460   -6.6560   -0.2700 C.ar      1    LIG76    0.0000
      3 C3         12.1530   -7.8720    0.2990 C.ar      1    LIG76    0.0000
      4 C4         12.3160   -5.4990    1.7830 C.ar      1    LIG76    0.0000
      5 C5         12.7250   -6.7140    2.3820 C.ar      1    LIG76    0.0000
      6 C6         12.6450   -7.9020    1.6120 C.ar      1    LIG76    0.0000
      7 N1         13.0530   -9.0820    2.1370 N.pl3     1    LIG76    0.0000
      8 C7         13.5500   -9.2140    3.3930 C.ar      1    LIG76    0.0000
      9 C8         13.6410   -8.0650    4.2010 C.ar      1    LIG76    0.0000
     10 C9         13.2250   -6.8110    3.7070 C.ar      1    LIG76    0.0000
     11 C10        11.4190   -4.2080   -0.1340 C.ar      1    LIG76    0.0000
     12 C11        13.3260   -5.7270    4.5550 C.2       1    LIG76    0.0000
     13 O1         12.3860   -4.9700    4.7370 O.co2     1    LIG76   -0.5000
     14 O2         14.4280   -5.5140    5.2520 O.co2     1    LIG76   -0.5000
     15 C12        13.9560  -10.4870    3.8420 C.2       1    LIG76    0.0000
     16 N2         13.8420  -11.5470    3.0100 N.am      1    LIG76    0.0000
     17 O3         14.4110  -10.6490    4.9980 O.2       1    LIG76    0.0000
     18 C13        14.2120  -12.8840    3.3420 C.3       1    LIG76    0.0000
     19 C14        15.1670  -13.3500    2.3690 C.2       1    LIG76    0.0000
     20 C15        12.9620  -13.7930    3.3280 C.3       1    LIG76    0.0000
     21 C16        11.9610  -13.3970    4.3410 C.ar      1    LIG76    0.0000
     22 O4         14.8280  -13.3570    1.0790 O.2       1    LIG76    0.0000
     23 O5         16.2690  -13.7300    2.7390 O.co2     1    LIG76    0.0000
     24 C17        15.7760  -13.7890    0.1030 C.2       1    LIG76    0.0000
     25 C18        10.6960  -12.9120    3.9510 C.ar      1    LIG76    0.0000
     26 C19         9.7500  -12.5300    4.9170 C.ar      1    LIG76    0.0000
     27 C20        10.0590  -12.6310    6.2840 C.ar      1    LIG76    0.0000
     28 C21        11.3170  -13.1150    6.6830 C.ar      1    LIG76    0.0000
     29 C22        12.2620  -13.4970    5.7150 C.ar      1    LIG76    0.0000
     30 O6          9.1450  -12.2610    7.2080 O.2       1    LIG76    0.0000
     31 C23        12.0900   -2.9970    0.1690 C.ar      1    LIG76    0.0000
     32 C24        11.6970   -1.7810   -0.4150 C.ar      1    LIG76    0.0000
     33 C25        10.6220   -1.7480   -1.3160 C.ar      1    LIG76    0.0000
     34 C26         9.9420   -2.9340   -1.6320 C.ar      1    LIG76    0.0000
     35 C27        10.3360   -4.1490   -1.0460 C.ar      1    LIG76    0.0000
     36 H1         11.3640   -6.6445   -1.2908 H         1    LIG76    0.0000
     37 H2         12.0868   -8.7935   -0.2794 H         1    LIG76    0.0000
     38 H3         12.3830   -4.5766    2.3599 H         1    LIG76    0.0000
     39 H4         12.9822   -9.9258    1.5506 H         1    LIG76    0.0000
     40 H5         14.0351   -8.1447    5.2141 H         1    LIG76    0.0000
     41 H6         13.4604  -11.3766    2.0686 H         1    LIG76    0.0000
     42 H7         14.6524  -12.9120    4.3387 H         1    LIG76    0.0000
     43 H8         13.2522  -14.8241    3.5297 H         1    LIG76    0.0000
     44 H9         12.4749  -13.6771    2.3598 H         1    LIG76    0.0000
     45 H10        15.5058  -13.7973   -0.9529 H         1    LIG76    0.0000
     46 H11        16.7701  -14.1105    0.4137 H         1    LIG76    0.0000
     47 H12        10.4500  -12.8328    2.8921 H         1    LIG76    0.0000
     48 H13         8.7751  -12.1548    4.6056 H         1    LIG76    0.0000
     49 H14        11.5596  -13.1941    7.7427 H         1    LIG76    0.0000
     50 H15        13.2355  -13.8736    6.0291 H         1    LIG76    0.0000
     51 H16        12.9263   -3.0092    0.8679 H         1    LIG76    0.0000
     52 H17        12.2281   -0.8618   -0.1677 H         1    LIG76    0.0000
     53 H18        10.3163   -0.8048   -1.7687 H         1    LIG76    0.0000
     54 H19         9.1073   -2.9129   -2.3327 H         1    LIG76    0.0000
     55 H20         9.7985   -5.0632   -1.2977 H         1    LIG76    0.0000
@<TRIPOS>BOND
     1    1    2 ar
     2    1    4 ar
     3    1   11 1
     4    2    3 ar
     5    3    6 ar
     6    4    5 ar
     7    5    6 ar
     8    5   10 ar
     9    6    7 ar
    10    7    8 ar
    11    8    9 ar
    12    8   15 1
    13    9   10 ar
    14   10   12 1
    15   11   31 ar
    16   11   35 ar
    17   12   13 am
    18   12   14 am
    19   15   16 am
    20   15   17 2
    21   16   18 1
    22   18   19 1
    23   18   20 1
    24   19   22 1
    25   19   23 2
    26   20   21 1
    27   21   25 ar
    28   21   29 ar
    29   22   24 2
    30   25   26 ar
    31   26   27 ar
    32   27   28 ar
    33   27   30 2
    34   28   29 ar
    35   31   32 ar
    36   32   33 ar
    37   33   34 ar
    38   34   35 ar
    39    2   36 1
    40    3   37 1
    41    4   38 1
    42    7   39 1
    43    9   40 1
    44   16   41 1
    45   18   42 1
    46   20   43 1
    47   20   44 1
    48   24   45 1
    49   24   46 1
    50   25   47 1
    51   26   48 1
    52   28   49 1
    53   29   50 1
    54   31   51 1
    55   32   52 1
    56   33   53 1
    57   34   54 1
    58   35   55 1
@<TRIPOS>SUBSTRUCTURE
     1    LIG76    1   GROUP 1   LIG 1
@<TRIPOS>MOLECULE
50077184
   55    58    1     0     0
SMALL
USER_CHARGES


@<TRIPOS>ATOM
      1 C1          4.1010   -9.1980    0.4070 C.ar      1    LIG77    0.0000
      2 C2          4.1830  -10.4330   -0.2790 C.ar      1    LIG77    0.0000
      3 C3          4.7400  -11.5670    0.3310 C.ar      1    LIG77    0.0000
      4 C4          4.6060   -9.1410    1.7290 C.ar      1    LIG77    0.0000
      5 C5          5.1790  -10.2680    2.3620 C.ar      1    LIG77    0.0000
      6 C6          5.2330  -11.4890    1.6420 C.ar      1    LIG77    0.0000
      7 N1          5.7600  -12.5950    2.2190 N.pl3     1    LIG77    0.0000
      8 C7          6.2560  -12.6210    3.4830 C.ar      1    LIG77    0.0000
      9 C8          6.2260  -11.4330    4.2380 C.ar      1    LIG77    0.0000
     10 C9          5.6940  -10.2500    3.6840 C.ar      1    LIG77    0.0000
     11 C10         3.5260   -8.0480   -0.2150 C.ar      1    LIG77    0.0000
     12 C11         5.7070   -9.1110    4.4620 C.2       1    LIG77    0.0000
     13 O1          5.2820   -9.1240    5.6070 O.co2     1    LIG77   -0.5000
     14 O2          6.2270   -7.9840    4.0110 O.co2     1    LIG77   -0.5000
     15 C12         6.7880  -13.8220    3.9920 C.2       1    LIG77    0.0000
     16 N2          6.7700  -14.9370    3.2260 N.am      1    LIG77    0.0000
     17 O3          7.2950  -13.8700    5.1370 O.2       1    LIG77    0.0000
     18 C13         7.3000  -16.1950    3.6320 C.3       1    LIG77    0.0000
     19 C14         7.3580  -17.0510    2.4710 C.2       1    LIG77    0.0000
     20 C15         6.4250  -16.8310    4.7410 C.3       1    LIG77    0.0000
     21 C16         6.9760  -18.1080    5.2440 C.ar      1    LIG77    0.0000
     22 O4          6.2580  -17.3650    1.8100 O.co2     1    LIG77   -0.5000
     23 O5          8.4230  -17.5020    2.0800 O.co2     1    LIG77   -0.5000
     24 C17         6.2910  -19.3210    5.0290 C.ar      1    LIG77    0.0000
     25 C18         6.8250  -20.5330    5.5010 C.ar      1    LIG77    0.0000
     26 C19         8.0470  -20.5410    6.1950 C.ar      1    LIG77    0.0000
     27 C20         8.7330  -19.3350    6.4170 C.ar      1    LIG77    0.0000
     28 C21         8.1990  -18.1240    5.9440 C.ar      1    LIG77    0.0000
     29 C22         3.6910   -7.8040   -1.5980 C.ar      1    LIG77    0.0000
     30 C23         3.1260   -6.6720   -2.2070 C.ar      1    LIG77    0.0000
     31 C24         2.3850   -5.7620   -1.4410 C.ar      1    LIG77    0.0000
     32 C25         2.1930   -5.9660   -0.0580 C.ar      1    LIG77    0.0000
     33 C26         2.7700   -7.1130    0.5340 C.ar      1    LIG77    0.0000
     34 C27         1.3980   -4.9800    0.7220 C.3       1    LIG77    0.0000
     35 F1          1.2820   -5.2830    2.0600 F         1    LIG77    0.0000
     36 F2          1.9780   -3.7370    0.6440 F         1    LIG77    0.0000
     37 F3          0.1230   -4.8980    0.2180 F         1    LIG77    0.0000
     38 O6          8.5560  -21.7090    6.6450 O.2       1    LIG77    0.0000
     39 H1          3.8067  -10.5045   -1.2995 H         1    LIG77    0.0000
     40 H2          4.7897  -12.5095   -0.2142 H         1    LIG77    0.0000
     41 H3          4.5512   -8.1993    2.2752 H         1    LIG77    0.0000
     42 H4          5.7861  -13.4651    1.6684 H         1    LIG77    0.0000
     43 H5          6.6159  -11.4275    5.2559 H         1    LIG77    0.0000
     44 H6          6.3460  -14.8719    2.2896 H         1    LIG77    0.0000
     45 H7          8.2986  -16.0612    4.0479 H         1    LIG77    0.0000
     46 H8          5.4254  -17.0295    4.3544 H         1    LIG77    0.0000
     47 H9          6.4211  -16.1506    5.5926 H         1    LIG77    0.0000
     48 H10         5.3416  -19.3194    4.4936 H         1    LIG77    0.0000
     49 H11         6.2907  -21.4673    5.3285 H         1    LIG77    0.0000
     50 H12         9.6801  -19.3386    6.9565 H         1    LIG77    0.0000
     51 H13         8.7344  -17.1910    6.1198 H         1    LIG77    0.0000
     52 H14         4.2663   -8.5063   -2.2013 H         1    LIG77    0.0000
     53 H15         3.2636   -6.5012   -3.2747 H         1    LIG77    0.0000
     54 H16         1.9509   -4.8844   -1.9202 H         1    LIG77    0.0000
     55 H17         2.6285   -7.2834    1.6013 H         1    LIG77    0.0000
@<TRIPOS>BOND
     1    1    2 ar
     2    1    4 ar
     3    1   11 1
     4    2    3 ar
     5    3    6 ar
     6    4    5 ar
     7    5    6 ar
     8    5   10 ar
     9    6    7 ar
    10    7    8 ar
    11    8    9 ar
    12    8   15 1
    13    9   10 ar
    14   10   12 1
    15   11   29 ar
    16   11   33 ar
    17   12   13 am
    18   12   14 am
    19   15   16 am
    20   15   17 2
    21   16   18 1
    22   18   19 1
    23   18   20 1
    24   19   22 am
    25   19   23 am
    26   20   21 1
    27   21   24 ar
    28   21   28 ar
    29   24   25 ar
    30   25   26 ar
    31   26   27 ar
    32   26   38 2
    33   27   28 ar
    34   29   30 ar
    35   30   31 ar
    36   31   32 ar
    37   32   33 ar
    38   32   34 1
    39   34   35 1
    40   34   36 1
    41   34   37 1
    42    2   39 1
    43    3   40 1
    44    4   41 1
    45    7   42 1
    46    9   43 1
    47   16   44 1
    48   18   45 1
    49   20   46 1
    50   20   47 1
    51   24   48 1
    52   25   49 1
    53   27   50 1
    54   28   51 1
    55   29   52 1
    56   30   53 1
    57   31   54 1
    58   33   55 1
@<TRIPOS>SUBSTRUCTURE
     1    LIG77    1   GROUP 1   LIG 1
