# Mol2 written by MVD (www.molegro.com)

@<TRIPOS>MOLECULE
153788
   50    52    1     0     0
SMALL
USER_CHARGES


@<TRIPOS>ATOM
      1 N1          1.7330    2.9850    1.1740 N.am      1     LIG1    0.0000
      2 C1          0.8990    2.3630    0.3070 C.2       1     LIG1    0.0000
      3 C2          0.2570    1.2530    0.8690 C.2       1     LIG1    0.0000
      4 S1          0.7160    1.0150    2.5260 S.3       1     LIG1    0.0000
      5 C3          1.7470    2.3920    2.3830 C.2       1     LIG1    0.0000
      6 C4          0.6980    2.8230   -1.0740 C.3       1     LIG1    0.0000
      7 O1          2.4400    2.7880    3.3460 O.2       1     LIG1    0.0000
      8 C5         -0.6570    0.3630    0.2480 C.2       1     LIG1    0.0000
      9 C6         -1.1890   -0.7000    1.0030 C.2       1     LIG1    0.0000
     10 C7         -2.0730   -1.5850    0.3790 C.2       1     LIG1    0.0000
     11 N2         -2.3970   -1.4060   -0.9200 N.2       1     LIG1    0.0000
     12 C8         -1.9000   -0.3860   -1.6560 C.2       1     LIG1    0.0000
     13 N3         -1.0390    0.4810   -1.0560 N.2       1     LIG1    0.0000
     14 N4         -2.3260   -0.3600   -2.9460 N.pl3     1     LIG1    0.0000
     15 C9         -2.0600    0.5130   -3.9570 C.2       1     LIG1    0.0000
     16 C10        -1.0540    2.5100   -4.9600 C.2       1     LIG1    0.0000
     17 C11        -1.2670    1.6750   -3.8510 C.2       1     LIG1    0.0000
     18 C12        -2.6410    0.2150   -5.2060 C.2       1     LIG1    0.0000
     19 C13        -2.4290    1.0440   -6.3210 C.2       1     LIG1    0.0000
     20 C14        -1.6320    2.1960   -6.2020 C.2       1     LIG1    0.0000
     21 S2         -1.3700    3.2380   -7.5670 S.o2      1     LIG1    0.0000
     22 C15         2.5140    4.1380    0.8550 C.3       1     LIG1    0.0000
     23 O2          0.1710    3.6290   -7.5420 O.2       1     LIG1    0.0000
     24 O3         -2.1430    2.6790   -8.8400 O.2       1     LIG1    0.0000
     25 N5         -2.1080    4.6870   -7.1380 N.pl3     1     LIG1    0.0000
     26 C16        -3.4160    5.0170   -7.5690 C.3       1     LIG1    0.0000
     27 C17        -4.4580    4.0370   -7.0130 C.3       1     LIG1    0.0000
     28 O4         -4.3730    3.9910   -5.5900 O.3       1     LIG1    0.0000
     29 C18        -5.2900    3.1320   -4.9200 C.3       1     LIG1    0.0000
     30 H1          0.9820    2.0270   -1.7630 H         1     LIG1    0.0000
     31 H2         -0.3510    3.0830   -1.2120 H         1     LIG1    0.0000
     32 H3          1.3010    3.7010   -1.2960 H         1     LIG1    0.0000
     33 H4         -0.9460   -0.8410    1.9840 H         1     LIG1    0.0000
     34 H5         -2.4690   -2.3670    0.9010 H         1     LIG1    0.0000
     35 H6         -2.9170   -1.0920   -3.1830 H         1     LIG1    0.0000
     36 H7         -0.4780    3.3470   -4.8640 H         1     LIG1    0.0000
     37 H8         -0.8450    1.9270   -2.9680 H         1     LIG1    0.0000
     38 H9         -3.2240   -0.6170   -5.3120 H         1     LIG1    0.0000
     39 H10        -2.8590    0.8130   -7.2160 H         1     LIG1    0.0000
     40 H11         3.1160    4.4660    1.7050 H         1     LIG1    0.0000
     41 H12         3.1870    3.9070    0.0280 H         1     LIG1    0.0000
     42 H13         1.8550    4.9580    0.5640 H         1     LIG1    0.0000
     43 H14        -1.6160    5.3170   -6.5900 H         1     LIG1    0.0000
     44 H15        -3.6570    6.0210   -7.2200 H         1     LIG1    0.0000
     45 H16        -3.4510    5.0010   -8.6590 H         1     LIG1    0.0000
     46 H17        -5.4520    4.3740   -7.3090 H         1     LIG1    0.0000
     47 H18        -4.2850    3.0430   -7.4270 H         1     LIG1    0.0000
     48 H19        -5.0950    3.1680   -3.8480 H         1     LIG1    0.0000
     49 H20        -6.3120    3.4620   -5.1100 H         1     LIG1    0.0000
     50 H21        -5.1670    2.1080   -5.2730 H         1     LIG1    0.0000
@<TRIPOS>BOND
     1    1    2 1
     2    1    5 1
     3    1   22 1
     4    2    3 2
     5    2    6 1
     6    3    4 1
     7    3    8 1
     8    4    5 1
     9    5    7 2
    10    6   30 1
    11    6   31 1
    12    6   32 1
    13    8    9 2
    14    8   13 1
    15    9   10 1
    16    9   33 1
    17   10   11 2
    18   10   34 1
    19   11   12 1
    20   12   13 2
    21   12   14 1
    22   14   15 1
    23   14   35 1
    24   15   17 2
    25   15   18 1
    26   16   17 1
    27   16   20 2
    28   16   36 1
    29   17   37 1
    30   18   19 2
    31   18   38 1
    32   19   20 1
    33   19   39 1
    34   20   21 1
    35   21   23 2
    36   21   24 2
    37   21   25 1
    38   22   40 1
    39   22   41 1
    40   22   42 1
    41   25   26 1
    42   25   43 1
    43   26   27 1
    44   26   44 1
    45   26   45 1
    46   27   28 1
    47   27   46 1
    48   27   47 1
    49   28   29 1
    50   29   48 1
    51   29   49 1
    52   29   50 1
@<TRIPOS>SUBSTRUCTURE
     1     LIG1    1   GROUP 1   LIG 1
@<TRIPOS>MOLECULE
153789
   36    38    1     0     0
SMALL
USER_CHARGES


@<TRIPOS>ATOM
      1 N1          1.4960    3.0440    0.9670 N.am      1     LIG2    0.0000
      2 C1          1.2840    1.9370    0.2170 C.2       1     LIG2    0.0000
      3 C2          1.9900    0.8250    0.6900 C.2       1     LIG2    0.0000
      4 S1          2.9260    1.1910    2.1040 S.3       1     LIG2    0.0000
      5 C3          2.3380    2.8110    1.9940 C.2       1     LIG2    0.0000
      6 C4          0.3940    1.9190   -0.9570 C.3       1     LIG2    0.0000
      7 O1          2.6830    3.6830    2.8220 O.2       1     LIG2    0.0000
      8 C5          2.0040   -0.4770    0.1400 C.2       1     LIG2    0.0000
      9 C6          2.7650   -1.4960    0.7430 C.2       1     LIG2    0.0000
     10 C7          2.7570   -2.7680    0.1560 C.2       1     LIG2    0.0000
     11 N2          2.0320   -2.9920   -0.9640 N.2       1     LIG2    0.0000
     12 C8          1.2980   -2.0160   -1.5450 C.2       1     LIG2    0.0000
     13 N3          1.3000   -0.7810   -0.9810 N.2       1     LIG2    0.0000
     14 N4          0.6140   -2.3220   -2.6740 N.pl3     1     LIG2    0.0000
     15 C9         -0.1550   -1.4650   -3.3900 C.2       1     LIG2    0.0000
     16 C10        -0.7460   -0.5370   -5.5670 C.2       1     LIG2    0.0000
     17 C11         0.0330   -1.4030   -4.7830 C.2       1     LIG2    0.0000
     18 C12        -1.1580   -0.6720   -2.7920 C.2       1     LIG2    0.0000
     19 C13        -1.9380    0.2050   -3.5730 C.2       1     LIG2    0.0000
     20 C14        -1.7270    0.2700   -4.9650 C.2       1     LIG2    0.0000
     21 C15         0.8990    4.3150    0.7120 C.3       1     LIG2    0.0000
     22 C16        -2.8440    0.9500   -3.0110 C.1       1     LIG2    0.0000
     23 N5         -3.6410    1.6090   -2.5140 N.1       1     LIG2    0.0000
     24 H1         -0.4200    1.2170   -0.7790 H         1     LIG2    0.0000
     25 H2         -0.0370    2.9010   -1.1460 H         1     LIG2    0.0000
     26 H3          0.9530    1.6130   -1.8420 H         1     LIG2    0.0000
     27 H4          3.3160   -1.3300    1.5870 H         1     LIG2    0.0000
     28 H5          3.2990   -3.5260    0.5710 H         1     LIG2    0.0000
     29 H6          0.7280   -3.2180   -3.0260 H         1     LIG2    0.0000
     30 H7         -0.5990   -0.4910   -6.5760 H         1     LIG2    0.0000
     31 H8          0.7450   -1.9830   -5.2300 H         1     LIG2    0.0000
     32 H9         -1.3100   -0.7380   -1.7830 H         1     LIG2    0.0000
     33 H10        -2.2820    0.8980   -5.5500 H         1     LIG2    0.0000
     34 H11         1.2070    5.0610    1.4470 H         1     LIG2    0.0000
     35 H12         1.1940    4.6670   -0.2780 H         1     LIG2    0.0000
     36 H13        -0.1880    4.2250    0.7500 H         1     LIG2    0.0000
@<TRIPOS>BOND
     1    1    2 1
     2    1    5 1
     3    1   21 1
     4    2    3 2
     5    2    6 1
     6    3    4 1
     7    3    8 1
     8    4    5 1
     9    5    7 2
    10    6   24 1
    11    6   25 1
    12    6   26 1
    13    8    9 2
    14    8   13 1
    15    9   10 1
    16    9   27 1
    17   10   11 2
    18   10   28 1
    19   11   12 1
    20   12   13 2
    21   12   14 1
    22   14   15 1
    23   14   29 1
    24   15   17 2
    25   15   18 1
    26   16   17 1
    27   16   20 2
    28   16   30 1
    29   17   31 1
    30   18   19 2
    31   18   32 1
    32   19   20 1
    33   19   22 1
    34   20   33 1
    35   21   34 1
    36   21   35 1
    37   21   36 1
    38   22   23 3
@<TRIPOS>SUBSTRUCTURE
     1     LIG2    1   GROUP 1   LIG 1
@<TRIPOS>MOLECULE
153783
   42    44    1     0     0
SMALL
USER_CHARGES


@<TRIPOS>ATOM
      1 N1          1.9840    4.2270    0.0360 N.2       1     LIG3    0.0000
      2 C1          1.7500    2.9250   -0.1730 C.2       1     LIG3    0.0000
      3 C2          2.8650    2.1200    0.0900 C.2       1     LIG3    0.0000
      4 S1          4.2310    3.0560    0.6040 S.3       1     LIG3    0.0000
      5 C3          3.2360    4.4630    0.4420 C.2       1     LIG3    0.0000
      6 C4          0.4320    2.4700   -0.6310 C.3       1     LIG3    0.0000
      7 N2          3.6670    5.7100    0.6990 N.pl3     1     LIG3    0.0000
      8 C5          2.9340    0.7140   -0.0050 C.2       1     LIG3    0.0000
      9 C6          4.1070    0.0250    0.3540 C.2       1     LIG3    0.0000
     10 C7          4.1060   -1.3730    0.2670 C.2       1     LIG3    0.0000
     11 N3          3.0000   -2.0260   -0.1600 N.2       1     LIG3    0.0000
     12 C8          1.8760   -1.3640   -0.5170 C.2       1     LIG3    0.0000
     13 N4          1.8660   -0.0090   -0.4290 N.2       1     LIG3    0.0000
     14 N5          0.8140   -2.0890   -0.9340 N.pl3     1     LIG3    0.0000
     15 C9         -0.3630   -1.5800   -1.3700 C.2       1     LIG3    0.0000
     16 C10        -2.8010   -1.6000   -1.2760 C.2       1     LIG3    0.0000
     17 C11        -1.5600   -2.0800   -0.8240 C.2       1     LIG3    0.0000
     18 C12        -0.4230   -0.6060   -2.3900 C.2       1     LIG3    0.0000
     19 C13        -1.6640   -0.1240   -2.8480 C.2       1     LIG3    0.0000
     20 C14        -2.8520   -0.6260   -2.2870 C.2       1     LIG3    0.0000
     21 S2         -1.7380    1.0750   -4.1020 S.o2      1     LIG3    0.0000
     22 O1         -0.2730    1.4840   -4.5670 O.2       1     LIG3    0.0000
     23 O2         -2.8990    0.6510   -5.1020 O.2       1     LIG3    0.0000
     24 C15        -2.3850    2.5600   -3.3170 C.3       1     LIG3    0.0000
     25 C16         4.9910    5.9780    1.1220 C.3       1     LIG3    0.0000
     26 H1          0.0210    1.7450    0.0730 H         1     LIG3    0.0000
     27 H2         -0.2500    3.3180   -0.6980 H         1     LIG3    0.0000
     28 H3          0.5250    2.0120   -1.6160 H         1     LIG3    0.0000
     29 H4          3.0480    6.4490    0.5850 H         1     LIG3    0.0000
     30 H5          4.9410    0.5150    0.6810 H         1     LIG3    0.0000
     31 H6          4.9390   -1.9020    0.5260 H         1     LIG3    0.0000
     32 H7          0.8960   -3.0540   -0.8910 H         1     LIG3    0.0000
     33 H8         -3.6660   -1.9620   -0.8730 H         1     LIG3    0.0000
     34 H9         -1.5300   -2.7930   -0.0940 H         1     LIG3    0.0000
     35 H10         0.4390   -0.2490   -2.8050 H         1     LIG3    0.0000
     36 H11        -3.7540   -0.2840   -2.6200 H         1     LIG3    0.0000
     37 H12        -2.5020    3.3390   -4.0690 H         1     LIG3    0.0000
     38 H13        -3.3540    2.3460   -2.8640 H         1     LIG3    0.0000
     39 H14        -1.6900    2.8990   -2.5510 H         1     LIG3    0.0000
     40 H15         5.1030    7.0510    1.2780 H         1     LIG3    0.0000
     41 H16         5.2010    5.4600    2.0590 H         1     LIG3    0.0000
     42 H17         5.7000    5.6540    0.3580 H         1     LIG3    0.0000
@<TRIPOS>BOND
     1    1    2 1
     2    1    5 2
     3    2    3 2
     4    2    6 1
     5    3    4 1
     6    3    8 1
     7    4    5 1
     8    5    7 1
     9    6   26 1
    10    6   27 1
    11    6   28 1
    12    7   25 1
    13    7   29 1
    14    8    9 2
    15    8   13 1
    16    9   10 1
    17    9   30 1
    18   10   11 2
    19   10   31 1
    20   11   12 1
    21   12   13 2
    22   12   14 1
    23   14   15 1
    24   14   32 1
    25   15   17 2
    26   15   18 1
    27   16   17 1
    28   16   20 2
    29   16   33 1
    30   17   34 1
    31   18   19 2
    32   18   35 1
    33   19   20 1
    34   19   21 1
    35   20   36 1
    36   21   22 2
    37   21   23 2
    38   21   24 1
    39   24   37 1
    40   24   38 1
    41   24   39 1
    42   25   40 1
    43   25   41 1
    44   25   42 1
@<TRIPOS>SUBSTRUCTURE
     1     LIG3    1   GROUP 1   LIG 1
@<TRIPOS>MOLECULE
50519896
   35    37    1     0     0
SMALL
USER_CHARGES


@<TRIPOS>ATOM
      1 C1          3.2170    1.4560    0.7210 C.2       1     LIG4    0.0000
      2 N1          2.9680   -0.6550   -0.1200 N.2       1     LIG4    0.0000
      3 C2          4.2950   -0.4940   -0.1610 C.2       1     LIG4    0.0000
      4 C3          2.3400    0.4230    0.3680 C.2       1     LIG4    0.0000
      5 N2         -2.7450    1.6330   -0.4320 N.pl3     1     LIG4    0.0000
      6 S1          4.8700    1.0340    0.4110 S.3       1     LIG4    0.0000
      7 N3          1.5810    3.0330    1.5390 N.2       1     LIG4    0.0000
      8 C4          1.2110    4.2220    2.0790 C.2       1     LIG4    0.0000
      9 C5          2.8740    2.7090    1.2730 C.2       1     LIG4    0.0000
     10 C6         -2.5390    2.2930    0.7480 C.2       1     LIG4    0.0000
     11 N4         -0.0720    4.5500    2.3650 N.pl3     1     LIG4    0.0000
     12 C7         -1.3970    3.1030    0.9370 C.2       1     LIG4    0.0000
     13 N5          2.1740    5.1280    2.3660 N.2       1     LIG4    0.0000
     14 O1         -3.7770    1.0540   -0.6660 O.3       1     LIG4    0.0000
     15 O2         -1.9040    1.5890   -1.2910 O.2       1     LIG4    0.0000
     16 C8         -1.1590    3.7660    2.1590 C.2       1     LIG4    0.0000
     17 N6          5.1130   -1.4490   -0.6150 N.pl3     1     LIG4    0.0000
     18 C9          3.8730    3.6540    1.5700 C.2       1     LIG4    0.0000
     19 C10         3.4820    4.8790    2.1260 C.2       1     LIG4    0.0000
     20 C11         0.8780    0.4490    0.4780 C.3       1     LIG4    0.0000
     21 C12        -3.4620    2.1830    1.8120 C.2       1     LIG4    0.0000
     22 C13        -3.2500    2.8600    3.0240 C.2       1     LIG4    0.0000
     23 C14        -2.1040    3.6510    3.1950 C.2       1     LIG4    0.0000
     24 H1         -0.2160    5.4020    2.8030 H         1     LIG4    0.0000
     25 H2         -0.7270    3.2090    0.1750 H         1     LIG4    0.0000
     26 H3          6.0710   -1.3010   -0.6340 H         1     LIG4    0.0000
     27 H4          4.7440   -2.2900   -0.9280 H         1     LIG4    0.0000
     28 H5          4.8610    3.4670    1.3930 H         1     LIG4    0.0000
     29 H6          4.1840    5.5840    2.3530 H         1     LIG4    0.0000
     30 H7          0.4620   -0.5020    0.1440 H         1     LIG4    0.0000
     31 H8          0.5840    0.6190    1.5140 H         1     LIG4    0.0000
     32 H9          0.4830    1.2450   -0.1520 H         1     LIG4    0.0000
     33 H10        -4.2970    1.6060    1.7050 H         1     LIG4    0.0000
     34 H11        -3.9290    2.7740    3.7810 H         1     LIG4    0.0000
     35 H12        -1.9560    4.1390    4.0790 H         1     LIG4    0.0000
@<TRIPOS>BOND
     1    1    4 2
     2    1    6 1
     3    1    9 1
     4    2    3 2
     5    2    4 1
     6    3    6 1
     7    3   17 1
     8    4   20 1
     9    5   10 1
    10    5   14 1
    11    5   15 2
    12    7    8 1
    13    7    9 2
    14    8   11 1
    15    8   13 2
    16    9   18 1
    17   10   12 2
    18   10   21 1
    19   11   16 1
    20   11   24 1
    21   12   16 1
    22   12   25 1
    23   13   19 1
    24   16   23 2
    25   17   26 1
    26   17   27 1
    27   18   19 2
    28   18   28 1
    29   19   29 1
    30   20   30 1
    31   20   31 1
    32   20   32 1
    33   21   22 2
    34   21   33 1
    35   22   23 1
    36   22   34 1
    37   23   35 1
@<TRIPOS>SUBSTRUCTURE
     1     LIG4    1   GROUP 1   LIG 1
@<TRIPOS>MOLECULE
50579853
   35    37    1     0     0
SMALL
USER_CHARGES


@<TRIPOS>ATOM
      1 C1          3.2170    1.4560    0.7210 C.2       1     LIG5    0.0000
      2 N1          2.9680   -0.6550   -0.1200 N.2       1     LIG5    0.0000
      3 C2          4.2950   -0.4940   -0.1610 C.2       1     LIG5    0.0000
      4 C3          2.3400    0.4230    0.3680 C.2       1     LIG5    0.0000
      5 N2         -2.7450    1.6330   -0.4320 N.pl3     1     LIG5    0.0000
      6 S1          4.8700    1.0340    0.4110 S.3       1     LIG5    0.0000
      7 N3          1.5810    3.0330    1.5390 N.2       1     LIG5    0.0000
      8 C4          1.2110    4.2220    2.0790 C.2       1     LIG5    0.0000
      9 C5          2.8740    2.7090    1.2730 C.2       1     LIG5    0.0000
     10 C6         -2.5390    2.2930    0.7480 C.2       1     LIG5    0.0000
     11 N4         -0.0720    4.5500    2.3650 N.pl3     1     LIG5    0.0000
     12 C7         -1.3970    3.1030    0.9370 C.2       1     LIG5    0.0000
     13 N5          2.1740    5.1280    2.3660 N.2       1     LIG5    0.0000
     14 O1         -3.7770    1.0540   -0.6660 O.3       1     LIG5    0.0000
     15 O2         -1.9040    1.5890   -1.2910 O.2       1     LIG5    0.0000
     16 C8         -1.1590    3.7660    2.1590 C.2       1     LIG5    0.0000
     17 N6          5.1130   -1.4490   -0.6150 N.pl3     1     LIG5    0.0000
     18 C9          3.8730    3.6540    1.5700 C.2       1     LIG5    0.0000
     19 C10         3.4820    4.8790    2.1260 C.2       1     LIG5    0.0000
     20 C11         0.8780    0.4490    0.4780 C.3       1     LIG5    0.0000
     21 C12        -3.4620    2.1830    1.8120 C.2       1     LIG5    0.0000
     22 C13        -3.2500    2.8600    3.0240 C.2       1     LIG5    0.0000
     23 C14        -2.1040    3.6510    3.1950 C.2       1     LIG5    0.0000
     24 H1         -0.2160    5.4020    2.8030 H         1     LIG5    0.0000
     25 H2         -0.7270    3.2090    0.1750 H         1     LIG5    0.0000
     26 H3          6.0710   -1.3010   -0.6340 H         1     LIG5    0.0000
     27 H4          4.7440   -2.2900   -0.9280 H         1     LIG5    0.0000
     28 H5          4.8610    3.4670    1.3930 H         1     LIG5    0.0000
     29 H6          4.1840    5.5840    2.3530 H         1     LIG5    0.0000
     30 H7          0.4620   -0.5020    0.1440 H         1     LIG5    0.0000
     31 H8          0.5840    0.6190    1.5140 H         1     LIG5    0.0000
     32 H9          0.4830    1.2450   -0.1520 H         1     LIG5    0.0000
     33 H10        -4.2970    1.6060    1.7050 H         1     LIG5    0.0000
     34 H11        -3.9290    2.7740    3.7810 H         1     LIG5    0.0000
     35 H12        -1.9560    4.1390    4.0790 H         1     LIG5    0.0000
@<TRIPOS>BOND
     1    1    4 2
     2    1    6 1
     3    1    9 1
     4    2    3 2
     5    2    4 1
     6    3    6 1
     7    3   17 1
     8    4   20 1
     9    5   10 1
    10    5   14 1
    11    5   15 2
    12    7    8 1
    13    7    9 2
    14    8   11 1
    15    8   13 2
    16    9   18 1
    17   10   12 2
    18   10   21 1
    19   11   16 1
    20   11   24 1
    21   12   16 1
    22   12   25 1
    23   13   19 1
    24   16   23 2
    25   17   26 1
    26   17   27 1
    27   18   19 2
    28   18   28 1
    29   19   29 1
    30   20   30 1
    31   20   31 1
    32   20   32 1
    33   21   22 2
    34   21   33 1
    35   22   23 1
    36   22   34 1
    37   23   35 1
@<TRIPOS>SUBSTRUCTURE
     1     LIG5    1   GROUP 1   LIG 1
@<TRIPOS>MOLECULE
153780
   41    43    1     0     0
SMALL
USER_CHARGES


@<TRIPOS>ATOM
      1 N1          2.2120    3.1860    0.2130 N.2       1     LIG6    0.0000
      2 C1          1.5110    2.0840   -0.0870 C.2       1     LIG6    0.0000
      3 C2          2.1540    0.9030    0.3000 C.2       1     LIG6    0.0000
      4 S1          3.6860    1.2180    1.0490 S.3       1     LIG6    0.0000
      5 C3          3.3750    2.9040    0.8120 C.2       1     LIG6    0.0000
      6 C4          0.2140    2.1880   -0.7630 C.3       1     LIG6    0.0000
      7 N2          4.2240    3.8750    1.1910 N.pl3     1     LIG6    0.0000
      8 C5          1.6740   -0.4150    0.1420 C.2       1     LIG6    0.0000
      9 C6          2.4410   -1.5110    0.5790 C.2       1     LIG6    0.0000
     10 C7          1.9150   -2.7980    0.4090 C.2       1     LIG6    0.0000
     11 N3          0.6980   -2.9630   -0.1600 N.2       1     LIG6    0.0000
     12 C8         -0.0400   -1.9110   -0.5830 C.2       1     LIG6    0.0000
     13 N4          0.4630   -0.6600   -0.4230 N.2       1     LIG6    0.0000
     14 N5         -1.2550   -2.1640   -1.1250 N.pl3     1     LIG6    0.0000
     15 C9         -2.1280   -1.2300   -1.5770 C.2       1     LIG6    0.0000
     16 C10        -4.4120   -0.3690   -1.6130 C.2       1     LIG6    0.0000
     17 C11        -3.4730   -1.3150   -1.1680 C.2       1     LIG6    0.0000
     18 C12        -1.7430   -0.2060   -2.4670 C.2       1     LIG6    0.0000
     19 C13        -2.6770    0.7470   -2.9120 C.2       1     LIG6    0.0000
     20 C14        -4.0130    0.6630   -2.4790 C.2       1     LIG6    0.0000
     21 S2         -2.1840    2.0290   -3.9740 S.o2      1     LIG6    0.0000
     22 O1         -0.6760    1.8160   -4.4300 O.2       1     LIG6    0.0000
     23 O2         -3.4090    2.3960   -4.9190 O.2       1     LIG6    0.0000
     24 C15         5.4610    3.5900    1.8200 C.3       1     LIG6    0.0000
     25 N6         -2.0940    3.3610   -2.9590 N.pl3     1     LIG6    0.0000
     26 H1         -0.5630    1.7250   -0.1540 H         1     LIG6    0.0000
     27 H2         -0.0380    3.2370   -0.9200 H         1     LIG6    0.0000
     28 H3          0.2700    1.6910   -1.7310 H         1     LIG6    0.0000
     29 H4          3.9800    4.7990    1.0230 H         1     LIG6    0.0000
     30 H5          3.3580   -1.3890    1.0130 H         1     LIG6    0.0000
     31 H6          2.4470   -3.6120    0.7150 H         1     LIG6    0.0000
     32 H7         -1.5440   -3.0890   -1.1400 H         1     LIG6    0.0000
     33 H8         -5.3830   -0.4290   -1.3040 H         1     LIG6    0.0000
     34 H9         -3.7700   -2.0600   -0.5370 H         1     LIG6    0.0000
     35 H10        -0.7770   -0.1480   -2.7880 H         1     LIG6    0.0000
     36 H11        -4.6950    1.3530   -2.7970 H         1     LIG6    0.0000
     37 H12         5.9750    4.5270    2.0350 H         1     LIG6    0.0000
     38 H13         5.2930    3.0540    2.7550 H         1     LIG6    0.0000
     39 H14         6.0860    2.9850    1.1610 H         1     LIG6    0.0000
     40 H15        -1.2350    3.6450   -2.6140 H         1     LIG6    0.0000
     41 H16        -2.8990    3.8520   -2.7360 H         1     LIG6    0.0000
@<TRIPOS>BOND
     1    1    2 1
     2    1    5 2
     3    2    3 2
     4    2    6 1
     5    3    4 1
     6    3    8 1
     7    4    5 1
     8    5    7 1
     9    6   26 1
    10    6   27 1
    11    6   28 1
    12    7   24 1
    13    7   29 1
    14    8    9 2
    15    8   13 1
    16    9   10 1
    17    9   30 1
    18   10   11 2
    19   10   31 1
    20   11   12 1
    21   12   13 2
    22   12   14 1
    23   14   15 1
    24   14   32 1
    25   15   17 2
    26   15   18 1
    27   16   17 1
    28   16   20 2
    29   16   33 1
    30   17   34 1
    31   18   19 2
    32   18   35 1
    33   19   20 1
    34   19   21 1
    35   20   36 1
    36   21   22 2
    37   21   23 2
    38   21   25 1
    39   24   37 1
    40   24   38 1
    41   24   39 1
    42   25   40 1
    43   25   41 1
@<TRIPOS>SUBSTRUCTURE
     1     LIG6    1   GROUP 1   LIG 1
@<TRIPOS>MOLECULE
51488914
   51    53    1     0     0
SMALL
USER_CHARGES


@<TRIPOS>ATOM
      1 C1         -0.7130    2.9220    0.3570 C.2       1     LIG7    0.0000
      2 C2          0.8470    2.1800   -1.2530 C.2       1     LIG7    0.0000
      3 C3          1.9290    2.7500   -0.5460 C.2       1     LIG7    0.0000
      4 C4          1.5790    3.4150    0.6530 C.2       1     LIG7    0.0000
      5 N1          0.2920    3.4790    1.0640 N.2       1     LIG7    0.0000
      6 N2         -0.4220    2.2770   -0.7950 N.2       1     LIG7    0.0000
      7 N3          2.4750    4.0160    1.4500 N.pl3     1     LIG7    0.0000
      8 C5          3.2700    2.6560   -1.0170 C.2       1     LIG7    0.0000
      9 O1          4.2160    3.1680   -0.3760 O.2       1     LIG7    0.0000
     10 C6          3.6400    1.9880   -2.2040 C.2       1     LIG7    0.0000
     11 C7          3.8120    2.6990   -3.4170 C.2       1     LIG7    0.0000
     12 C8          4.1930    2.0110   -4.5880 C.2       1     LIG7    0.0000
     13 C9          4.4030    0.6220   -4.5520 C.2       1     LIG7    0.0000
     14 C10         4.2350   -0.0850   -3.3520 C.2       1     LIG7    0.0000
     15 C11         3.8590    0.5930   -2.1780 C.2       1     LIG7    0.0000
     16 N4         -1.9720    3.0220    0.8250 N.pl3     1     LIG7    0.0000
     17 C12        -3.1090    2.4890    0.1600 C.3       1     LIG7    0.0000
     18 C13        -4.3160    2.5680    1.1120 C.3       1     LIG7    0.0000
     19 C14        -5.5860    2.0640    0.4110 C.3       1     LIG7    0.0000
     20 C15        -4.7240    2.7540   -1.7630 C.3       1     LIG7    0.0000
     21 C16        -3.4270    3.2770   -1.1270 C.3       1     LIG7    0.0000
     22 N5         -5.7640    2.7820   -0.8000 N.pl3     1     LIG7    0.0000
     23 C17        -7.9810    2.8460   -2.4220 C.3       1     LIG7    0.0000
     24 S1         -7.1470    3.7050   -1.0810 S.o2      1     LIG7    0.0000
     25 O2         -8.1470    3.6060    0.1510 O.2       1     LIG7    0.0000
     26 O3         -6.6690    5.0710   -1.7390 O.2       1     LIG7    0.0000
     27 F1          3.6150    3.9920   -3.4680 F         1     LIG7    0.0000
     28 O4          3.6930   -0.1210   -1.0320 O.3       1     LIG7    0.0000
     29 C18         4.8550   -0.4070   -0.2510 C.3       1     LIG7    0.0000
     30 F2          4.3560    2.6430   -5.7190 F         1     LIG7    0.0000
     31 H1          1.0030    1.6810   -2.1300 H         1     LIG7    0.0000
     32 H2          2.1780    4.4590    2.2600 H         1     LIG7    0.0000
     33 H3          3.4170    4.0120    1.2170 H         1     LIG7    0.0000
     34 H4          4.6780    0.1220   -5.3990 H         1     LIG7    0.0000
     35 H5          4.3860   -1.0940   -3.3300 H         1     LIG7    0.0000
     36 H6         -2.1030    3.4690    1.6750 H         1     LIG7    0.0000
     37 H7         -2.9330    1.4400   -0.0900 H         1     LIG7    0.0000
     38 H8         -4.4680    3.6030    1.4230 H         1     LIG7    0.0000
     39 H9         -4.1260    1.9560    1.9950 H         1     LIG7    0.0000
     40 H10        -5.4820    1.0010    0.1880 H         1     LIG7    0.0000
     41 H11        -6.4400    2.2040    1.0730 H         1     LIG7    0.0000
     42 H12        -4.9830    3.3760   -2.6200 H         1     LIG7    0.0000
     43 H13        -4.5730    1.7280   -2.1030 H         1     LIG7    0.0000
     44 H14        -3.5490    4.3350   -0.8860 H         1     LIG7    0.0000
     45 H15        -2.6140    3.1690   -1.8450 H         1     LIG7    0.0000
     46 H16        -8.8880    3.3890   -2.6890 H         1     LIG7    0.0000
     47 H17        -7.3210    2.7930   -3.2880 H         1     LIG7    0.0000
     48 H18        -8.2410    1.8380   -2.0990 H         1     LIG7    0.0000
     49 H19         4.5560   -0.9720    0.6310 H         1     LIG7    0.0000
     50 H20         5.5650   -1.0010   -0.8280 H         1     LIG7    0.0000
     51 H21         5.3320    0.5210    0.0700 H         1     LIG7    0.0000
@<TRIPOS>BOND
     1    1    5 2
     2    1    6 1
     3    1   16 1
     4    2    3 1
     5    2    6 2
     6    2   31 1
     7    3    4 2
     8    3    8 1
     9    4    5 1
    10    4    7 1
    11    7   32 1
    12    7   33 1
    13    8    9 2
    14    8   10 1
    15   10   11 2
    16   10   15 1
    17   11   12 1
    18   11   27 1
    19   12   13 2
    20   12   30 1
    21   13   14 1
    22   13   34 1
    23   14   15 2
    24   14   35 1
    25   15   28 1
    26   16   17 1
    27   16   36 1
    28   17   18 1
    29   17   21 1
    30   17   37 1
    31   18   19 1
    32   18   38 1
    33   18   39 1
    34   19   22 1
    35   19   40 1
    36   19   41 1
    37   20   21 1
    38   20   22 1
    39   20   42 1
    40   20   43 1
    41   21   44 1
    42   21   45 1
    43   22   24 1
    44   23   24 1
    45   23   46 1
    46   23   47 1
    47   23   48 1
    48   24   25 2
    49   24   26 2
    50   28   29 1
    51   29   49 1
    52   29   50 1
    53   29   51 1
@<TRIPOS>SUBSTRUCTURE
     1     LIG7    1   GROUP 1   LIG 1
@<TRIPOS>MOLECULE
50948457
   56    60    1     0     0
SMALL
USER_CHARGES


@<TRIPOS>ATOM
      1 C1         -1.0540    1.5180    0.4680 C.2       1     LIG8    0.0000
      2 C2          0.2950    1.9580    0.4420 C.2       1     LIG8    0.0000
      3 C3          0.5790    3.3060    0.7900 C.2       1     LIG8    0.0000
      4 C4         -0.4440    4.2040    1.1560 C.2       1     LIG8    0.0000
      5 C5         -2.0650    2.4220    0.8370 C.2       1     LIG8    0.0000
      6 C6         -1.7630    3.7320    1.1710 C.2       1     LIG8    0.0000
      7 N1         -2.9140    4.3440    1.4740 N.pl3     1     LIG8    0.0000
      8 N2         -3.9090    3.5160    1.3550 N.2       1     LIG8    0.0000
      9 C7         -3.4460    2.3100    0.9630 C.2       1     LIG8    0.0000
     10 C8         -4.2500    1.1830    0.7420 C.2       1     LIG8    0.0000
     11 N3         -5.5870    1.1720    0.8950 N.pl3     1     LIG8    0.0000
     12 N4         -3.8140   -0.0360    0.3530 N.2       1     LIG8    0.0000
     13 C9         -4.9040   -0.8130    0.2660 C.2       1     LIG8    0.0000
     14 C10        -6.0200   -0.0580    0.6060 C.2       1     LIG8    0.0000
     15 C11        -7.3090   -0.6120    0.6060 C.2       1     LIG8    0.0000
     16 C12        -7.4470   -1.9690    0.2490 C.2       1     LIG8    0.0000
     17 C13        -6.3150   -2.7400   -0.0980 C.2       1     LIG8    0.0000
     18 C14        -5.0280   -2.1640   -0.0920 C.2       1     LIG8    0.0000
     19 C15         1.3400    1.0730    0.0780 C.2       1     LIG8    0.0000
     20 N5          1.0820   -0.2140   -0.2610 N.am      1     LIG8    0.0000
     21 O1          2.5310    1.4640    0.0710 O.2       1     LIG8    0.0000
     22 C16         2.0740   -1.1670   -0.6360 C.3       1     LIG8    0.0000
     23 C17         2.7280   -0.7910   -1.9890 C.3       1     LIG8    0.0000
     24 N6          3.6600   -1.8280   -2.4890 N.3       1     LIG8    1.0000
     25 C18         4.0570   -1.5060   -3.8710 C.3       1     LIG8    0.0000
     26 C19         4.8670   -1.9190   -1.6450 C.3       1     LIG8    0.0000
     27 C20         1.4310   -2.5010   -0.6950 C.2       1     LIG8    0.0000
     28 C21         1.8700   -3.5440    0.1470 C.2       1     LIG8    0.0000
     29 C22         1.2580   -4.8080    0.0980 C.2       1     LIG8    0.0000
     30 C23         0.1990   -5.0420   -0.7950 C.2       1     LIG8    0.0000
     31 C24        -0.2470   -4.0120   -1.6390 C.2       1     LIG8    0.0000
     32 C25         0.3670   -2.7490   -1.5890 C.2       1     LIG8    0.0000
     33 H1         -1.3000    0.5580    0.2260 H         1     LIG8    0.0000
     34 H2          1.5430    3.6450    0.7780 H         1     LIG8    0.0000
     35 H3         -0.2300    5.1700    1.4040 H         1     LIG8    0.0000
     36 H4         -2.9940    5.2730    1.7450 H         1     LIG8    0.0000
     37 H5         -6.1340    1.9240    1.1690 H         1     LIG8    0.0000
     38 H6         -8.1230   -0.0500    0.8580 H         1     LIG8    0.0000
     39 H7         -8.3730   -2.3980    0.2400 H         1     LIG8    0.0000
     40 H8         -6.4300   -3.7210   -0.3550 H         1     LIG8    0.0000
     41 H9         -4.2060   -2.7160   -0.3410 H         1     LIG8    0.0000
     42 H10         0.1620   -0.5160   -0.2240 H         1     LIG8    0.0000
     43 H11         2.8490   -1.1650    0.1340 H         1     LIG8    0.0000
     44 H12         1.9350   -0.6420   -2.7240 H         1     LIG8    0.0000
     45 H13         3.2660    0.1520   -1.8810 H         1     LIG8    0.0000
     46 H14         4.7320   -2.2750   -4.2500 H         1     LIG8    0.0000
     47 H15         3.1740   -1.4750   -4.5100 H         1     LIG8    0.0000
     48 H16         4.5600   -0.5380   -3.9080 H         1     LIG8    0.0000
     49 H17         5.5590   -2.6470   -2.0700 H         1     LIG8    0.0000
     50 H18         5.3630   -0.9490   -1.5820 H         1     LIG8    0.0000
     51 H19         4.5990   -2.2500   -0.6420 H         1     LIG8    0.0000
     52 H20         2.6380   -3.3840    0.8000 H         1     LIG8    0.0000
     53 H21         1.5820   -5.5560    0.7130 H         1     LIG8    0.0000
     54 H22        -0.2460   -5.9600   -0.8300 H         1     LIG8    0.0000
     55 H23        -1.0160   -4.1810   -2.2890 H         1     LIG8    0.0000
     56 H24         0.0350   -2.0060   -2.2060 H         1     LIG8    0.0000
@<TRIPOS>BOND
     1    1    2 1
     2    1    5 2
     3    1   33 1
     4    2    3 2
     5    2   19 1
     6    3    4 1
     7    3   34 1
     8    4    6 2
     9    4   35 1
    10    5    6 1
    11    5    9 1
    12    6    7 1
    13    7    8 1
    14    7   36 1
    15    8    9 2
    16    9   10 1
    17   10   11 1
    18   10   12 2
    19   11   14 1
    20   11   37 1
    21   12   13 1
    22   13   14 1
    23   13   18 2
    24   14   15 2
    25   15   16 1
    26   15   38 1
    27   16   17 2
    28   16   39 1
    29   17   18 1
    30   17   40 1
    31   18   41 1
    32   19   20 1
    33   19   21 2
    34   22   20 1
    35   20   42 1
    36   22   23 1
    37   22   27 1
    38   22   43 1
    39   23   24 1
    40   23   44 1
    41   23   45 1
    42   24   25 1
    43   24   26 1
    44   25   46 1
    45   25   47 1
    46   25   48 1
    47   26   49 1
    48   26   50 1
    49   26   51 1
    50   27   28 2
    51   27   32 1
    52   28   29 1
    53   28   52 1
    54   29   30 2
    55   29   53 1
    56   30   31 1
    57   30   54 1
    58   31   32 2
    59   31   55 1
    60   32   56 1
@<TRIPOS>SUBSTRUCTURE
     1     LIG8    1   GROUP 1   LIG 1
@<TRIPOS>MOLECULE
153784
   45    47    1     0     0
SMALL
USER_CHARGES


@<TRIPOS>ATOM
      1 N1          2.0270    4.1490    1.0760 N.2       1     LIG9    0.0000
      2 C1          1.7820    2.8430    0.9080 C.2       1     LIG9    0.0000
      3 C2          2.8960    2.1300    0.4510 C.2       1     LIG9    0.0000
      4 S1          4.2760    3.1570    0.2370 S.3       1     LIG9    0.0000
      5 C3          3.2870    4.4750    0.7680 C.2       1     LIG9    0.0000
      6 C4          0.4570    2.2860    1.2030 C.3       1     LIG9    0.0000
      7 N2          3.7330    5.7390    0.8710 N.pl3     1     LIG9    0.0000
      8 C5          2.9620    0.7480    0.1720 C.2       1     LIG9    0.0000
      9 C6          4.1610    0.1710   -0.2870 C.2       1     LIG9    0.0000
     10 C7          4.1720   -1.2020   -0.5610 C.2       1     LIG9    0.0000
     11 N3          3.0510   -1.9380   -0.3840 N.2       1     LIG9    0.0000
     12 C8          1.8990   -1.3860    0.0620 C.2       1     LIG9    0.0000
     13 N4          1.8780   -0.0550    0.3300 N.2       1     LIG9    0.0000
     14 N5          0.8210   -2.1940    0.2000 N.pl3     1     LIG9    0.0000
     15 C9         -0.4060   -1.8120    0.6300 C.2       1     LIG9    0.0000
     16 C10        -2.8240   -1.8540    0.2980 C.2       1     LIG9    0.0000
     17 C11        -1.5290   -2.2020   -0.1240 C.2       1     LIG9    0.0000
     18 C12        -0.5970   -1.0930    1.8280 C.2       1     LIG9    0.0000
     19 C13        -1.8910   -0.7420    2.2550 C.2       1     LIG9    0.0000
     20 C14        -3.0030   -1.1240    1.4840 C.2       1     LIG9    0.0000
     21 S2         -2.1140    0.1340    3.7390 S.o2      1     LIG9    0.0000
     22 O1         -0.7830    0.9300    4.0910 O.2       1     LIG9    0.0000
     23 O2         -3.5680    0.7790    3.7630 O.2       1     LIG9    0.0000
     24 C15        -2.1860   -1.1420    5.0060 C.3       1     LIG9    0.0000
     25 C16         5.0650    6.0950    0.5490 C.3       1     LIG9    0.0000
     26 C17         5.2640    7.5980    0.7740 C.3       1     LIG9    0.0000
     27 H1          0.0400    1.8220    0.3100 H         1     LIG9    0.0000
     28 H2          0.5470    1.5440    1.9950 H         1     LIG9    0.0000
     29 H3         -0.2140    3.0780    1.5380 H         1     LIG9    0.0000
     30 H4          3.1200    6.4250    1.1790 H         1     LIG9    0.0000
     31 H5          5.0070    0.7250   -0.4260 H         1     LIG9    0.0000
     32 H6          5.0260   -1.6490   -0.8970 H         1     LIG9    0.0000
     33 H7          0.9280   -3.1160   -0.0790 H         1     LIG9    0.0000
     34 H8         -3.6340   -2.1350   -0.2560 H         1     LIG9    0.0000
     35 H9         -1.4070   -2.7370   -0.9850 H         1     LIG9    0.0000
     36 H10         0.2080   -0.8260    2.3960 H         1     LIG9    0.0000
     37 H11        -3.9450   -0.8750    1.7890 H         1     LIG9    0.0000
     38 H12        -2.3280   -0.6740    5.9800 H         1     LIG9    0.0000
     39 H13        -3.0200   -1.8130    4.8000 H         1     LIG9    0.0000
     40 H14        -1.2540   -1.7070    5.0070 H         1     LIG9    0.0000
     41 H15         5.7620    5.5460    1.1850 H         1     LIG9    0.0000
     42 H16         5.2710    5.8630   -0.4970 H         1     LIG9    0.0000
     43 H17         6.2900    7.8690    0.5250 H         1     LIG9    0.0000
     44 H18         4.5800    8.1610    0.1380 H         1     LIG9    0.0000
     45 H19         5.0720    7.8430    1.8190 H         1     LIG9    0.0000
@<TRIPOS>BOND
     1    1    2 1
     2    1    5 2
     3    2    3 2
     4    2    6 1
     5    3    4 1
     6    3    8 1
     7    4    5 1
     8    5    7 1
     9    6   27 1
    10    6   28 1
    11    6   29 1
    12    7   25 1
    13    7   30 1
    14    8    9 2
    15    8   13 1
    16    9   10 1
    17    9   31 1
    18   10   11 2
    19   10   32 1
    20   11   12 1
    21   12   13 2
    22   12   14 1
    23   14   15 1
    24   14   33 1
    25   15   17 2
    26   15   18 1
    27   16   17 1
    28   16   20 2
    29   16   34 1
    30   17   35 1
    31   18   19 2
    32   18   36 1
    33   19   20 1
    34   19   21 1
    35   20   37 1
    36   21   22 2
    37   21   23 2
    38   21   24 1
    39   24   38 1
    40   24   39 1
    41   24   40 1
    42   25   26 1
    43   25   41 1
    44   25   42 1
    45   26   43 1
    46   26   44 1
    47   26   45 1
@<TRIPOS>SUBSTRUCTURE
     1     LIG9    1   GROUP 1   LIG 1
@<TRIPOS>MOLECULE
153782
   41    43    1     0     0
SMALL
USER_CHARGES


@<TRIPOS>ATOM
      1 N1          2.1480    3.1400   -0.0270 N.2       1    LIG10    0.0000
      2 C1          1.4010    2.0300   -0.0880 C.2       1    LIG10    0.0000
      3 C2          2.1230    0.8660    0.2010 C.2       1    LIG10    0.0000
      4 S1          3.7850    1.2070    0.5560 S.3       1    LIG10    0.0000
      5 C3          3.4190    2.8780    0.2980 C.2       1    LIG10    0.0000
      6 C4         -0.0230    2.1060   -0.4330 C.3       1    LIG10    0.0000
      7 N2          4.3370    3.8440    0.4120 N.pl3     1    LIG10    0.0000
      8 C5          1.6240   -0.4530    0.2290 C.2       1    LIG10    0.0000
      9 C6          2.4680   -1.5300    0.5570 C.2       1    LIG10    0.0000
     10 C7          1.9160   -2.8180    0.5850 C.2       1    LIG10    0.0000
     11 N3          0.6060   -3.0010    0.3000 N.2       1    LIG10    0.0000
     12 C8         -0.2040   -1.9670   -0.0220 C.2       1    LIG10    0.0000
     13 N4          0.3210   -0.7160   -0.0500 N.2       1    LIG10    0.0000
     14 N5         -1.5050   -2.2320   -0.2850 N.pl3     1    LIG10    0.0000
     15 C9         -2.4420   -1.3130   -0.6220 C.2       1    LIG10    0.0000
     16 C10        -4.6500   -0.3540   -0.2250 C.2       1    LIG10    0.0000
     17 C11        -3.6460   -1.2790    0.1060 C.2       1    LIG10    0.0000
     18 C12        -2.2660   -0.4280   -1.7060 C.2       1    LIG10    0.0000
     19 C13        -3.2700    0.4980   -2.0460 C.2       1    LIG10    0.0000
     20 C14        -4.4610    0.5340   -1.2970 C.2       1    LIG10    0.0000
     21 S2         -3.0380    1.5920   -3.3760 S.o2      1    LIG10    0.0000
     22 O1         -1.9530    0.9760   -4.3610 O.2       1    LIG10    0.0000
     23 O2         -4.4540    2.1630   -3.8240 O.2       1    LIG10    0.0000
     24 N6         -2.2210    2.8990   -2.7040 N.pl3     1    LIG10    0.0000
     25 C15        -2.9010    3.8720   -1.9390 C.3       1    LIG10    0.0000
     26 H1         -0.2050    1.5470   -1.3500 H         1    LIG10    0.0000
     27 H2         -0.6250    1.6900    0.3760 H         1    LIG10    0.0000
     28 H3         -0.3120    3.1460   -0.5880 H         1    LIG10    0.0000
     29 H4          5.2510    3.6200    0.6480 H         1    LIG10    0.0000
     30 H5          4.0870    4.7670    0.2570 H         1    LIG10    0.0000
     31 H6          3.4550   -1.3940    0.7760 H         1    LIG10    0.0000
     32 H7          2.5020   -3.6190    0.8230 H         1    LIG10    0.0000
     33 H8         -1.7980   -3.1500   -0.1790 H         1    LIG10    0.0000
     34 H9         -5.5180   -0.3290    0.3110 H         1    LIG10    0.0000
     35 H10        -3.7920   -1.9240    0.8840 H         1    LIG10    0.0000
     36 H11        -1.4050   -0.4560   -2.2520 H         1    LIG10    0.0000
     37 H12        -5.1920    1.2050   -1.5350 H         1    LIG10    0.0000
     38 H13        -1.2660    2.9810   -2.8500 H         1    LIG10    0.0000
     39 H14        -2.1920    4.6290   -1.6030 H         1    LIG10    0.0000
     40 H15        -3.6710    4.3430   -2.5500 H         1    LIG10    0.0000
     41 H16        -3.3630    3.4010   -1.0720 H         1    LIG10    0.0000
@<TRIPOS>BOND
     1    1    2 1
     2    1    5 2
     3    2    3 2
     4    2    6 1
     5    3    4 1
     6    3    8 1
     7    4    5 1
     8    5    7 1
     9    6   26 1
    10    6   27 1
    11    6   28 1
    12    7   29 1
    13    7   30 1
    14    8    9 2
    15    8   13 1
    16    9   10 1
    17    9   31 1
    18   10   11 2
    19   10   32 1
    20   11   12 1
    21   12   13 2
    22   12   14 1
    23   14   15 1
    24   14   33 1
    25   15   17 2
    26   15   18 1
    27   16   17 1
    28   16   20 2
    29   16   34 1
    30   17   35 1
    31   18   19 2
    32   18   36 1
    33   19   20 1
    34   19   21 1
    35   20   37 1
    36   21   22 2
    37   21   23 2
    38   21   24 1
    39   24   25 1
    40   24   38 1
    41   25   39 1
    42   25   40 1
    43   25   41 1
@<TRIPOS>SUBSTRUCTURE
     1    LIG10    1   GROUP 1   LIG 1
@<TRIPOS>MOLECULE
153790
   40    42    1     0     0
SMALL
USER_CHARGES


@<TRIPOS>ATOM
      1 N1          2.0390    2.7010    0.7270 N.am      1    LIG11    0.0000
      2 C1          0.9900    2.0180    0.2120 C.2       1    LIG11    0.0000
      3 C2          1.1700    1.6990   -1.1390 C.2       1    LIG11    0.0000
      4 S1          2.6880    2.2680   -1.7550 S.3       1    LIG11    0.0000
      5 C3          3.0090    2.9120   -0.1850 C.2       1    LIG11    0.0000
      6 C4         -0.1980    1.6490    1.0020 C.3       1    LIG11    0.0000
      7 O1          4.0730    3.5220    0.0610 O.2       1    LIG11    0.0000
      8 C5          0.2710    1.0030   -1.9800 C.2       1    LIG11    0.0000
      9 C6          0.6040    0.7480   -3.3230 C.2       1    LIG11    0.0000
     10 C7         -0.3250    0.0650   -4.1190 C.2       1    LIG11    0.0000
     11 N2         -1.5070   -0.3300   -3.5940 N.2       1    LIG11    0.0000
     12 C8         -1.8290   -0.0890   -2.3020 C.2       1    LIG11    0.0000
     13 N3         -0.9340    0.5710   -1.5240 N.2       1    LIG11    0.0000
     14 N4         -3.0400   -0.5030   -1.8600 N.pl3     1    LIG11    0.0000
     15 C9         -3.5250   -0.3300   -0.6060 C.2       1    LIG11    0.0000
     16 C10        -5.3630    0.3880    0.8240 C.2       1    LIG11    0.0000
     17 C11        -4.8170    0.2030   -0.4560 C.2       1    LIG11    0.0000
     18 C12        -2.8020   -0.7070    0.5420 C.2       1    LIG11    0.0000
     19 C13        -3.3410   -0.5280    1.8330 C.2       1    LIG11    0.0000
     20 C14        -4.6330    0.0350    1.9760 C.2       1    LIG11    0.0000
     21 C15         2.1200    3.1480    2.0810 C.3       1    LIG11    0.0000
     22 N5         -2.6070   -0.9110    2.9030 N.pl3     1    LIG11    0.0000
     23 O2         -3.0000   -1.7790    3.6370 O.3       1    LIG11    0.0000
     24 C16        -5.2550    0.2800    3.2900 C.3       1    LIG11    0.0000
     25 O3         -1.5280   -0.4250    3.1120 O.2       1    LIG11    0.0000
     26 H1         -0.2860    0.5630    1.0260 H         1    LIG11    0.0000
     27 H2         -0.1240    2.0090    2.0260 H         1    LIG11    0.0000
     28 H3         -1.0920    2.0780    0.5490 H         1    LIG11    0.0000
     29 H4          1.4940    1.0480   -3.7240 H         1    LIG11    0.0000
     30 H5         -0.1110   -0.1340   -5.0960 H         1    LIG11    0.0000
     31 H6         -3.6280   -0.9120   -2.5130 H         1    LIG11    0.0000
     32 H7         -6.2980    0.7890    0.9160 H         1    LIG11    0.0000
     33 H8         -5.3610    0.4670   -1.2780 H         1    LIG11    0.0000
     34 H9         -1.8730   -1.1200    0.4400 H         1    LIG11    0.0000
     35 H10         3.0560    3.6750    2.2760 H         1    LIG11    0.0000
     36 H11         1.2930    3.8280    2.2930 H         1    LIG11    0.0000
     37 H12         2.0620    2.2920    2.7540 H         1    LIG11    0.0000
     38 H13        -4.5940    0.0140    4.1150 H         1    LIG11    0.0000
     39 H14        -5.5040    1.3390    3.3830 H         1    LIG11    0.0000
     40 H15        -6.1700   -0.3080    3.3750 H         1    LIG11    0.0000
@<TRIPOS>BOND
     1    1    2 1
     2    1    5 1
     3    1   21 1
     4    2    3 2
     5    2    6 1
     6    3    4 1
     7    3    8 1
     8    4    5 1
     9    5    7 2
    10    6   26 1
    11    6   27 1
    12    6   28 1
    13    8    9 2
    14    8   13 1
    15    9   10 1
    16    9   29 1
    17   10   11 2
    18   10   30 1
    19   11   12 1
    20   12   13 2
    21   12   14 1
    22   14   15 1
    23   14   31 1
    24   15   17 2
    25   15   18 1
    26   16   17 1
    27   16   20 2
    28   16   32 1
    29   17   33 1
    30   18   19 2
    31   18   34 1
    32   19   20 1
    33   19   22 1
    34   20   24 1
    35   21   35 1
    36   21   36 1
    37   21   37 1
    38   22   23 1
    39   22   25 2
    40   24   38 1
    41   24   39 1
    42   24   40 1
@<TRIPOS>SUBSTRUCTURE
     1    LIG11    1   GROUP 1   LIG 1
@<TRIPOS>MOLECULE
50579846
   49    51    1     0     0
SMALL
USER_CHARGES


@<TRIPOS>ATOM
      1 C1          3.6820  -11.3540    0.7050 C.2       1    LIG12    0.0000
      2 C2          3.8760  -12.7410    0.7410 C.2       1    LIG12    0.0000
      3 N1          5.1200  -13.2550    0.6070 N.2       1    LIG12    0.0000
      4 C3          6.2030  -12.4640    0.4310 C.2       1    LIG12    0.0000
      5 N2          6.0240  -11.1190    0.3940 N.2       1    LIG12    0.0000
      6 C4          4.8070  -10.5300    0.5240 C.2       1    LIG12    0.0000
      7 N3          7.4140  -13.0600    0.3230 N.pl3     1    LIG12    0.0000
      8 C5          8.5990  -12.4200    0.1650 C.2       1    LIG12    0.0000
      9 C6          8.8050  -11.4530   -0.8390 C.2       1    LIG12    0.0000
     10 C7         10.0540  -10.8220   -0.9730 C.2       1    LIG12    0.0000
     11 C8         11.1200  -11.1610   -0.1160 C.2       1    LIG12    0.0000
     12 C9         10.9170  -12.1430    0.8740 C.2       1    LIG12    0.0000
     13 C10         9.6670  -12.7710    1.0100 C.2       1    LIG12    0.0000
     14 C11         4.6670   -9.1260    0.4930 C.2       1    LIG12    0.0000
     15 S1          3.1170   -8.3740    0.6870 S.3       1    LIG12    0.0000
     16 C12         3.9180   -6.8470    0.5410 C.2       1    LIG12    0.0000
     17 N4          5.2410   -6.9180    0.3550 N.2       1    LIG12    0.0000
     18 C13         5.6860   -8.1810    0.3230 C.2       1    LIG12    0.0000
     19 C14         7.1110   -8.4660    0.1210 C.3       1    LIG12    0.0000
     20 N5          3.2790   -5.6660    0.6090 N.pl3     1    LIG12    0.0000
     21 C15         1.8800   -5.5780    0.8120 C.3       1    LIG12    0.0000
     22 C16         1.4570   -4.1060    0.8470 C.3       1    LIG12    0.0000
     23 C17        12.4320  -10.5020   -0.2450 C.3       1    LIG12    0.0000
     24 N6         13.4210  -11.4470   -0.6260 N.am      1    LIG12    0.0000
     25 C18        14.7170  -11.1160   -0.7960 C.2       1    LIG12    0.0000
     26 O1         15.1080   -9.9410   -0.6170 O.2       1    LIG12    0.0000
     27 C19        15.6740  -12.1460   -1.1950 C.3       1    LIG12    0.0000
     28 H1          2.7420  -10.9680    0.8090 H         1    LIG12    0.0000
     29 H2          3.0790  -13.3650    0.8720 H         1    LIG12    0.0000
     30 H3          7.4380  -14.0240    0.4210 H         1    LIG12    0.0000
     31 H4          8.0460  -11.2040   -1.4740 H         1    LIG12    0.0000
     32 H5         10.1850  -10.1160   -1.6990 H         1    LIG12    0.0000
     33 H6         11.6810  -12.4000    1.5010 H         1    LIG12    0.0000
     34 H7          9.5370  -13.4800    1.7330 H         1    LIG12    0.0000
     35 H8          7.6680   -7.5320    0.0360 H         1    LIG12    0.0000
     36 H9          7.5010   -9.0340    0.9660 H         1    LIG12    0.0000
     37 H10         7.2400   -9.0370   -0.7980 H         1    LIG12    0.0000
     38 H11         3.7970   -4.8510    0.5190 H         1    LIG12    0.0000
     39 H12         1.3530   -6.0800   -0.0020 H         1    LIG12    0.0000
     40 H13         1.6100   -6.0470    1.7600 H         1    LIG12    0.0000
     41 H14         0.3790   -4.0430    0.9990 H         1    LIG12    0.0000
     42 H15         1.9650   -3.5950    1.6660 H         1    LIG12    0.0000
     43 H16         1.7150   -3.6250   -0.0970 H         1    LIG12    0.0000
     44 H17        12.3910   -9.7100   -0.9970 H         1    LIG12    0.0000
     45 H18        12.7010  -10.0520    0.7130 H         1    LIG12    0.0000
     46 H19        13.1550  -12.3680   -0.7730 H         1    LIG12    0.0000
     47 H20        16.6700  -11.7130   -1.2890 H         1    LIG12    0.0000
     48 H21        15.6950  -12.9350   -0.4430 H         1    LIG12    0.0000
     49 H22        15.3750  -12.5690   -2.1550 H         1    LIG12    0.0000
@<TRIPOS>BOND
     1    1    2 2
     2    1    6 1
     3    1   28 1
     4    2    3 1
     5    2   29 1
     6    3    4 2
     7    4    5 1
     8    4    7 1
     9    5    6 2
    10    6   14 1
    11    7    8 1
    12    7   30 1
    13    8    9 1
    14    8   13 2
    15    9   10 2
    16    9   31 1
    17   10   11 1
    18   10   32 1
    19   11   12 2
    20   11   23 1
    21   12   13 1
    22   12   33 1
    23   13   34 1
    24   14   15 1
    25   14   18 2
    26   15   16 1
    27   16   17 2
    28   16   20 1
    29   17   18 1
    30   18   19 1
    31   19   35 1
    32   19   36 1
    33   19   37 1
    34   20   21 1
    35   20   38 1
    36   21   22 1
    37   21   39 1
    38   21   40 1
    39   22   41 1
    40   22   42 1
    41   22   43 1
    42   23   24 1
    43   23   44 1
    44   23   45 1
    45   24   25 1
    46   24   46 1
    47   25   26 2
    48   25   27 1
    49   27   47 1
    50   27   48 1
    51   27   49 1
@<TRIPOS>SUBSTRUCTURE
     1    LIG12    1   GROUP 1   LIG 1
@<TRIPOS>MOLECULE
153781
   44    46    1     0     0
SMALL
USER_CHARGES


@<TRIPOS>ATOM
      1 N1          2.0960    3.2260    0.4640 N.2       1    LIG13    0.0000
      2 C1          1.4050    2.1270    0.1360 C.2       1    LIG13    0.0000
      3 C2          2.1140    0.9430    0.3730 C.2       1    LIG13    0.0000
      4 S1          3.6910    1.2550    1.0220 S.3       1    LIG13    0.0000
      5 C3          3.3120    2.9420    0.9450 C.2       1    LIG13    0.0000
      6 C4          0.0490    2.2320   -0.4140 C.3       1    LIG13    0.0000
      7 N2          4.1590    3.9110    1.3320 N.pl3     1    LIG13    0.0000
      8 C5          1.6610   -0.3740    0.1450 C.2       1    LIG13    0.0000
      9 C6          2.4910   -1.4730    0.4330 C.2       1    LIG13    0.0000
     10 C7          1.9870   -2.7600    0.2010 C.2       1    LIG13    0.0000
     11 N3          0.7350   -2.9210   -0.2850 N.2       1    LIG13    0.0000
     12 C8         -0.0620   -1.8650   -0.5650 C.2       1    LIG13    0.0000
     13 N4          0.4180   -0.6140   -0.3450 N.2       1    LIG13    0.0000
     14 N5         -1.3080   -2.1110   -1.0320 N.pl3     1    LIG13    0.0000
     15 C9         -2.2310   -1.1700   -1.3470 C.2       1    LIG13    0.0000
     16 C10        -4.5020   -0.3190   -1.0860 C.2       1    LIG13    0.0000
     17 C11        -3.5110   -1.2630   -0.7690 C.2       1    LIG13    0.0000
     18 C12        -1.9620   -0.1360   -2.2680 C.2       1    LIG13    0.0000
     19 C13        -2.9530    0.8090   -2.5930 C.2       1    LIG13    0.0000
     20 C14        -4.2220    0.7160   -1.9940 C.2       1    LIG13    0.0000
     21 S2         -2.6100    2.0830   -3.7240 S.o2      1    LIG13    0.0000
     22 O1         -1.4220    1.6160   -4.6720 O.2       1    LIG13    0.0000
     23 O2         -3.9830    2.7060   -4.2300 O.2       1    LIG13    0.0000
     24 C15         5.4480    3.6260    1.8460 C.3       1    LIG13    0.0000
     25 N6         -1.8840    3.2860   -2.8000 N.pl3     1    LIG13    0.0000
     26 C16        -2.6490    4.1280   -1.9630 C.3       1    LIG13    0.0000
     27 H1         -0.6570    1.7040    0.2290 H         1    LIG13    0.0000
     28 H2         -0.2450    3.2800   -0.4750 H         1    LIG13    0.0000
     29 H3          0.0280    1.7990   -1.4140 H         1    LIG13    0.0000
     30 H4          3.8750    4.8350    1.2560 H         1    LIG13    0.0000
     31 H5          3.4340   -1.3540    0.8040 H         1    LIG13    0.0000
     32 H6          2.5640   -3.5780    0.4020 H         1    LIG13    0.0000
     33 H7         -1.5770   -3.0410   -1.0990 H         1    LIG13    0.0000
     34 H8         -5.4260   -0.3860   -0.6570 H         1    LIG13    0.0000
     35 H9         -3.7220   -2.0130   -0.1100 H         1    LIG13    0.0000
     36 H10        -1.0430   -0.0710   -2.7060 H         1    LIG13    0.0000
     37 H11        -4.9450    1.3990   -2.2220 H         1    LIG13    0.0000
     38 H12         5.9490    4.5630    2.0890 H         1    LIG13    0.0000
     39 H13         5.3670    3.0220    2.7510 H         1    LIG13    0.0000
     40 H14         6.0400    3.0890    1.1020 H         1    LIG13    0.0000
     41 H15        -0.9220    3.4000   -2.8490 H         1    LIG13    0.0000
     42 H16        -1.9900    4.8380   -1.4620 H         1    LIG13    0.0000
     43 H17        -3.3790    4.6730   -2.5610 H         1    LIG13    0.0000
     44 H18        -3.1680    3.5290   -1.2150 H         1    LIG13    0.0000
@<TRIPOS>BOND
     1    1    2 1
     2    1    5 2
     3    2    3 2
     4    2    6 1
     5    3    4 1
     6    3    8 1
     7    4    5 1
     8    5    7 1
     9    6   27 1
    10    6   28 1
    11    6   29 1
    12    7   24 1
    13    7   30 1
    14    8    9 2
    15    8   13 1
    16    9   10 1
    17    9   31 1
    18   10   11 2
    19   10   32 1
    20   11   12 1
    21   12   13 2
    22   12   14 1
    23   14   15 1
    24   14   33 1
    25   15   17 2
    26   15   18 1
    27   16   17 1
    28   16   20 2
    29   16   34 1
    30   17   35 1
    31   18   19 2
    32   18   36 1
    33   19   20 1
    34   19   21 1
    35   20   37 1
    36   21   22 2
    37   21   23 2
    38   21   25 1
    39   24   38 1
    40   24   39 1
    41   24   40 1
    42   25   26 1
    43   25   41 1
    44   26   42 1
    45   26   43 1
    46   26   44 1
@<TRIPOS>SUBSTRUCTURE
     1    LIG13    1   GROUP 1   LIG 1
@<TRIPOS>MOLECULE
51041256
   49    51    1     0     0
SMALL
USER_CHARGES


@<TRIPOS>ATOM
      1 C1         -2.8780    2.3340    0.6240 C.2       1    LIG14    0.0000
      2 C2         -3.0360    0.9540    0.6160 C.2       1    LIG14    0.0000
      3 C3         -0.9420    1.3860    0.4640 C.2       1    LIG14    0.0000
      4 O1         -1.5560    2.5900    0.5270 O.3       1    LIG14    0.0000
      5 N1         -1.8300    0.3800    0.5160 N.2       1    LIG14    0.0000
      6 C4         -3.9520    3.3480    0.7170 C.3       1    LIG14    0.0000
      7 C5         -4.7390    3.1780    2.0330 C.3       1    LIG14    0.0000
      8 C6         -3.3520    4.7700    0.6910 C.3       1    LIG14    0.0000
      9 C7         -4.9230    3.2120   -0.4740 C.3       1    LIG14    0.0000
     10 C8          0.5040    1.2130    0.3470 C.3       1    LIG14    0.0000
     11 S1          1.3140    1.9510    1.7780 S.3       1    LIG14    0.0000
     12 C9          2.9920    1.6830    1.4450 C.2       1    LIG14    0.0000
     13 C10         5.1760    1.1560    0.6530 C.2       1    LIG14    0.0000
     14 C11         4.0060    2.0620    2.3110 C.2       1    LIG14    0.0000
     15 S2          3.5820    0.9210    0.0080 S.3       1    LIG14    0.0000
     16 N2          5.2250    1.7580    1.8510 N.2       1    LIG14    0.0000
     17 N3          6.3170    0.7800    0.0400 N.am      1    LIG14    0.0000
     18 C12         6.3960    0.1730   -1.1660 C.2       1    LIG14    0.0000
     19 O2          5.3850   -0.1020   -1.8510 O.2       1    LIG14    0.0000
     20 C13         7.7220   -0.1790   -1.7010 C.3       1    LIG14    0.0000
     21 C14         8.6000    1.0740   -1.8880 C.3       1    LIG14    0.0000
     22 C15         8.4470   -1.1790   -0.7790 C.3       1    LIG14    0.0000
     23 C16         9.8360   -1.5000   -1.3510 C.3       1    LIG14    0.0000
     24 C17         9.9820    0.6660   -2.4170 C.3       1    LIG14    0.0000
     25 N4         10.6300   -0.2690   -1.4840 N.3       1    LIG14    0.0000
     26 H1         -3.9250    0.4570    0.6750 H         1    LIG14    0.0000
     27 H2         -5.5090    3.9470    2.1020 H         1    LIG14    0.0000
     28 H3         -5.2190    2.1990    2.0650 H         1    LIG14    0.0000
     29 H4         -4.0670    3.2750    2.8880 H         1    LIG14    0.0000
     30 H5         -4.1520    5.5090    0.7530 H         1    LIG14    0.0000
     31 H6         -2.6770    4.9100    1.5370 H         1    LIG14    0.0000
     32 H7         -2.7990    4.9290   -0.2360 H         1    LIG14    0.0000
     33 H8         -5.6890    3.9860   -0.4140 H         1    LIG14    0.0000
     34 H9         -4.3830    3.3250   -1.4150 H         1    LIG14    0.0000
     35 H10        -5.4110    2.2360   -0.4570 H         1    LIG14    0.0000
     36 H11         0.7450    0.1500    0.3000 H         1    LIG14    0.0000
     37 H12         0.8500    1.7030   -0.5630 H         1    LIG14    0.0000
     38 H13         3.8400    2.5250    3.2050 H         1    LIG14    0.0000
     39 H14         7.1500    0.9610    0.5020 H         1    LIG14    0.0000
     40 H15         7.5890   -0.6500   -2.6770 H         1    LIG14    0.0000
     41 H16         8.7260    1.5920   -0.9350 H         1    LIG14    0.0000
     42 H17         8.1300    1.7520   -2.6030 H         1    LIG14    0.0000
     43 H18         7.8690   -2.1020   -0.7070 H         1    LIG14    0.0000
     44 H19         8.5670   -0.7530    0.2190 H         1    LIG14    0.0000
     45 H20        10.3500   -2.1820   -0.6740 H         1    LIG14    0.0000
     46 H21         9.7300   -1.9820   -2.3240 H         1    LIG14    0.0000
     47 H22         9.8770    0.1990   -3.3980 H         1    LIG14    0.0000
     48 H23        10.6030    1.5560   -2.5150 H         1    LIG14    0.0000
     49 H24        11.5250   -0.5350   -1.9000 H         1    LIG14    0.0000
@<TRIPOS>BOND
     1    1    2 2
     2    1    4 1
     3    1    6 1
     4    2    5 1
     5    2   26 1
     6    3    4 1
     7    3    5 2
     8    3   10 1
     9    6    7 1
    10    6    8 1
    11    6    9 1
    12    7   27 1
    13    7   28 1
    14    7   29 1
    15    8   30 1
    16    8   31 1
    17    8   32 1
    18    9   33 1
    19    9   34 1
    20    9   35 1
    21   10   11 1
    22   10   36 1
    23   10   37 1
    24   11   12 1
    25   12   14 2
    26   12   15 1
    27   13   15 1
    28   13   16 2
    29   13   17 1
    30   14   16 1
    31   14   38 1
    32   17   18 1
    33   17   39 1
    34   18   19 2
    35   18   20 1
    36   20   21 1
    37   20   22 1
    38   20   40 1
    39   21   24 1
    40   21   41 1
    41   21   42 1
    42   22   23 1
    43   22   43 1
    44   22   44 1
    45   23   25 1
    46   23   45 1
    47   23   46 1
    48   24   25 1
    49   24   47 1
    50   24   48 1
    51   25   49 1
@<TRIPOS>SUBSTRUCTURE
     1    LIG14    1   GROUP 1   LIG 1
@<TRIPOS>MOLECULE
51267902
   48    51    1     0     0
SMALL
USER_CHARGES


@<TRIPOS>ATOM
      1 C1          0.4340    2.5550    0.5140 C.2       1    LIG15    0.0000
      2 C2          1.5840    1.8910    0.7570 C.2       1    LIG15    0.0000
      3 C3          2.5380    2.4450    1.5200 C.2       1    LIG15    0.0000
      4 C4          0.2100    3.8280    1.0290 C.2       1    LIG15    0.0000
      5 C5          1.2340    4.3940    1.8270 C.2       1    LIG15    0.0000
      6 C6          1.0980    5.6810    2.3990 C.2       1    LIG15    0.0000
      7 C7         -1.1160    5.8460    1.3620 C.2       1    LIG15    0.0000
      8 C8         -0.9690    4.5690    0.8000 C.2       1    LIG15    0.0000
      9 C9         -0.0960    6.3970    2.1520 C.2       1    LIG15    0.0000
     10 O1         -0.2820    7.6350    2.6670 O.3       1    LIG15    0.0000
     11 O2         -1.9780    4.0790    0.0440 O.3       1    LIG15    0.0000
     12 O3         -0.3980    1.9840   -0.1760 O.2       1    LIG15    0.0000
     13 O4          2.3690    3.6630    2.0480 O.3       1    LIG15    0.0000
     14 C10         3.7260    1.7990    1.7800 C.2       1    LIG15    0.0000
     15 C11         6.1190    1.6170    1.3200 C.2       1    LIG15    0.0000
     16 C12         4.8770    2.2310    1.0890 C.2       1    LIG15    0.0000
     17 C13         3.8320    0.7470    2.7230 C.2       1    LIG15    0.0000
     18 C14         5.0830    0.1370    2.9470 C.2       1    LIG15    0.0000
     19 C15         6.2210    0.5690    2.2470 C.2       1    LIG15    0.0000
     20 Cl1         2.5020    0.1930    3.6200 Cl        1    LIG15    0.0000
     21 C16         2.1660    6.2940    3.2420 C.3       1    LIG15    0.0000
     22 C17         4.3970    7.4380    3.3810 C.3       1    LIG15    0.0000
     23 C18         3.4170    6.7170    2.4390 C.3       1    LIG15    0.0000
     24 C19         2.5870    5.4220    4.4430 C.3       1    LIG15    0.0000
     25 C20         3.5960    6.1930    5.3080 C.3       1    LIG15    0.0000
     26 N1          4.7810    6.5610    4.5070 N.3       1    LIG15    0.0000
     27 C21         5.7650    7.2490    5.3620 C.3       1    LIG15    0.0000
     28 O5          4.0940    5.6130    1.8500 O.3       1    LIG15    0.0000
     29 H1          1.7170    0.9880    0.3650 H         1    LIG15    0.0000
     30 H2         -1.9710    6.3780    1.1940 H         1    LIG15    0.0000
     31 H3         -1.1420    8.0480    2.4420 H         1    LIG15    0.0000
     32 H4         -2.7500    4.6750   -0.0510 H         1    LIG15    0.0000
     33 H5          6.9470    1.9340    0.8140 H         1    LIG15    0.0000
     34 H6          4.8160    2.9960    0.4150 H         1    LIG15    0.0000
     35 H7          5.1760   -0.6230    3.6230 H         1    LIG15    0.0000
     36 H8          7.1230    0.1230    2.4160 H         1    LIG15    0.0000
     37 H9          1.7750    7.2150    3.6770 H         1    LIG15    0.0000
     38 H10         3.9280    8.3490    3.7580 H         1    LIG15    0.0000
     39 H11         5.2870    7.7120    2.8130 H         1    LIG15    0.0000
     40 H12         3.1230    7.4080    1.6480 H         1    LIG15    0.0000
     41 H13         1.7130    5.1750    5.0480 H         1    LIG15    0.0000
     42 H14         3.0630    4.5000    4.1090 H         1    LIG15    0.0000
     43 H15         3.1180    7.0880    5.7110 H         1    LIG15    0.0000
     44 H16         3.9010    5.5520    6.1370 H         1    LIG15    0.0000
     45 H17         6.0660    6.5900    6.1780 H         1    LIG15    0.0000
     46 H18         6.6480    7.5030    4.7760 H         1    LIG15    0.0000
     47 H19         5.3370    8.1620    5.7790 H         1    LIG15    0.0000
     48 H20         4.9100    5.8500    1.3640 H         1    LIG15    0.0000
@<TRIPOS>BOND
     1    1    2 1
     2    1    4 1
     3    1   12 2
     4    2    3 2
     5    2   29 1
     6    3   13 1
     7    3   14 1
     8    4    5 1
     9    4    8 2
    10    5    6 2
    11    5   13 1
    12    6    9 1
    13   21    6 1
    14    7    8 1
    15    7    9 2
    16    7   30 1
    17    8   11 1
    18    9   10 1
    19   10   31 1
    20   11   32 1
    21   14   16 2
    22   14   17 1
    23   15   16 1
    24   15   19 2
    25   15   33 1
    26   16   34 1
    27   17   18 2
    28   17   20 1
    29   18   19 1
    30   18   35 1
    31   19   36 1
    32   21   23 1
    33   21   24 1
    34   21   37 1
    35   22   23 1
    36   22   26 1
    37   22   38 1
    38   22   39 1
    39   23   28 1
    40   23   40 1
    41   24   25 1
    42   24   41 1
    43   24   42 1
    44   25   26 1
    45   25   43 1
    46   25   44 1
    47   26   27 1
    48   27   45 1
    49   27   46 1
    50   27   47 1
    51   28   48 1
@<TRIPOS>SUBSTRUCTURE
     1    LIG15    1   GROUP 1   LIG 1
@<TRIPOS>MOLECULE
153785
   44    46    1     0     0
SMALL
USER_CHARGES


@<TRIPOS>ATOM
      1 N1          2.2450    3.9580   -0.2240 N.2       1    LIG16    0.0000
      2 C1          1.9200    2.6620   -0.1270 C.2       1    LIG16    0.0000
      3 C2          2.9560    1.8720    0.3830 C.2       1    LIG16    0.0000
      4 S1          4.3700    2.8120    0.7360 S.3       1    LIG16    0.0000
      5 C3          3.4940    4.1990    0.1890 C.2       1    LIG16    0.0000
      6 C4          0.5940    2.1960   -0.5450 C.3       1    LIG16    0.0000
      7 N2          4.0240    5.4280    0.1730 N.pl3     1    LIG16    0.0000
      8 C5          2.9300    0.4800    0.6160 C.2       1    LIG16    0.0000
      9 C6          4.0660   -0.1710    1.1320 C.2       1    LIG16    0.0000
     10 C7          3.9950   -1.5510    1.3570 C.2       1    LIG16    0.0000
     11 N3          2.8540   -2.2230    1.0800 N.2       1    LIG16    0.0000
     12 C8          1.7620   -1.6020    0.5800 C.2       1    LIG16    0.0000
     13 N4          1.8200   -0.2630    0.3590 N.2       1    LIG16    0.0000
     14 N5          0.6650   -2.3610    0.3480 N.pl3     1    LIG16    0.0000
     15 C9         -0.5260   -1.9330   -0.1390 C.2       1    LIG16    0.0000
     16 C10        -2.9620   -2.0350   -0.0190 C.2       1    LIG16    0.0000
     17 C11        -1.7000   -2.4220    0.4630 C.2       1    LIG16    0.0000
     18 C12        -0.6320   -1.0720   -1.2510 C.2       1    LIG16    0.0000
     19 C13        -1.8920   -0.6760   -1.7360 C.2       1    LIG16    0.0000
     20 C14        -3.0570   -1.1610   -1.1140 C.2       1    LIG16    0.0000
     21 S2         -2.0110    0.4190   -3.0810 S.o2      1    LIG16    0.0000
     22 O1         -0.6130    0.4820   -3.8350 O.2       1    LIG16    0.0000
     23 O2         -3.4190    0.2050   -3.7890 O.2       1    LIG16    0.0000
     24 N6         -2.1000    1.9350   -2.3590 N.pl3     1    LIG16    0.0000
     25 C15        -3.2650    2.3670   -1.6840 C.3       1    LIG16    0.0000
     26 C16        -2.9450    2.6170   -0.2070 C.3       1    LIG16    0.0000
     27 H1          0.0850    1.7150    0.2900 H         1    LIG16    0.0000
     28 H2         -0.0020    3.0440   -0.8840 H         1    LIG16    0.0000
     29 H3          0.7010    1.4900   -1.3680 H         1    LIG16    0.0000
     30 H4          4.9330    5.5680    0.4780 H         1    LIG16    0.0000
     31 H5          3.4960    6.1760   -0.1450 H         1    LIG16    0.0000
     32 H6          4.9270    0.3350    1.3440 H         1    LIG16    0.0000
     33 H7          4.8020   -2.0500    1.7310 H         1    LIG16    0.0000
     34 H8          0.7260   -3.2960    0.6000 H         1    LIG16    0.0000
     35 H9         -3.8090   -2.3890    0.4260 H         1    LIG16    0.0000
     36 H10        -1.6400   -3.0600    1.2580 H         1    LIG16    0.0000
     37 H11         0.2120   -0.7330   -1.7140 H         1    LIG16    0.0000
     38 H12        -3.9740   -0.8780   -1.4600 H         1    LIG16    0.0000
     39 H13        -1.3260    2.5170   -2.3990 H         1    LIG16    0.0000
     40 H14        -3.6220    3.2910   -2.1400 H         1    LIG16    0.0000
     41 H15        -4.0450    1.6090   -1.7590 H         1    LIG16    0.0000
     42 H16        -3.8550    2.9170    0.3140 H         1    LIG16    0.0000
     43 H17        -2.5560    1.7050    0.2480 H         1    LIG16    0.0000
     44 H18        -2.2040    3.4120   -0.1180 H         1    LIG16    0.0000
@<TRIPOS>BOND
     1    1    2 1
     2    1    5 2
     3    2    3 2
     4    2    6 1
     5    3    4 1
     6    3    8 1
     7    4    5 1
     8    5    7 1
     9    6   27 1
    10    6   28 1
    11    6   29 1
    12    7   30 1
    13    7   31 1
    14    8    9 2
    15    8   13 1
    16    9   10 1
    17    9   32 1
    18   10   11 2
    19   10   33 1
    20   11   12 1
    21   12   13 2
    22   12   14 1
    23   14   15 1
    24   14   34 1
    25   15   17 2
    26   15   18 1
    27   16   17 1
    28   16   20 2
    29   16   35 1
    30   17   36 1
    31   18   19 2
    32   18   37 1
    33   19   20 1
    34   19   21 1
    35   20   38 1
    36   21   22 2
    37   21   23 2
    38   21   24 1
    39   24   25 1
    40   24   39 1
    41   25   26 1
    42   25   40 1
    43   25   41 1
    44   26   42 1
    45   26   43 1
    46   26   44 1
@<TRIPOS>SUBSTRUCTURE
     1    LIG16    1   GROUP 1   LIG 1
@<TRIPOS>MOLECULE
50910157
   35    37    1     0     0
SMALL
USER_CHARGES


@<TRIPOS>ATOM
      1 N1         11.8300   -4.6320   -0.5880 N.pl3     1    LIG17    0.0000
      2 N2         12.7280   -5.4940   -0.9480 N.am      1    LIG17    0.0000
      3 C1         13.0840   -5.2730   -2.2190 C.2       1    LIG17    0.0000
      4 C2         12.3440   -4.1860   -2.6800 C.2       1    LIG17    0.0000
      5 C3         11.5510   -3.7910   -1.6030 C.2       1    LIG17    0.0000
      6 N3         12.3550   -3.6320   -3.8750 N.2       1    LIG17    0.0000
      7 N4         13.0580   -4.0020   -4.8080 N.2       1    LIG17    0.0000
      8 C4         13.0720   -3.4500   -6.0060 C.2       1    LIG17    0.0000
      9 O1         13.9250   -5.9420   -2.8580 O.2       1    LIG17    0.0000
     10 C5         10.6060   -2.7420   -1.5420 C.2       1    LIG17    0.0000
     11 C6         10.7880   -1.5350   -2.2520 C.2       1    LIG17    0.0000
     12 C7          9.8320   -0.5080   -2.1750 C.2       1    LIG17    0.0000
     13 C8          8.6790   -0.6600   -1.3860 C.2       1    LIG17    0.0000
     14 C9          8.4970   -1.8590   -0.6680 C.2       1    LIG17    0.0000
     15 C10         9.4510   -2.8880   -0.7430 C.2       1    LIG17    0.0000
     16 C11        12.2720   -2.3440   -6.3660 C.2       1    LIG17    0.0000
     17 N5         12.3430   -1.8330   -7.6210 N.2       1    LIG17    0.0000
     18 C12        13.1630   -2.3410   -8.5740 C.2       1    LIG17    0.0000
     19 C13        13.9810   -3.4400   -8.2730 C.2       1    LIG17    0.0000
     20 C14        13.9290   -3.9900   -6.9820 C.2       1    LIG17    0.0000
     21 O2          7.7960    0.3820   -1.3630 O.3       1    LIG17    0.0000
     22 C15         6.5850    0.3470   -0.6040 C.3       1    LIG17    0.0000
     23 H1         11.4170   -4.5940    0.2890 H         1    LIG17    0.0000
     24 H2         13.0890   -6.1980   -0.3870 H         1    LIG17    0.0000
     25 H3         11.6190   -1.3890   -2.8270 H         1    LIG17    0.0000
     26 H4          9.9780    0.3570   -2.6970 H         1    LIG17    0.0000
     27 H5          7.6690   -1.9900   -0.0870 H         1    LIG17    0.0000
     28 H6          9.2930   -3.7480   -0.2150 H         1    LIG17    0.0000
     29 H7         11.6370   -1.9230   -5.6870 H         1    LIG17    0.0000
     30 H8         13.1840   -1.9250   -9.5060 H         1    LIG17    0.0000
     31 H9         14.6030   -3.8330   -8.9790 H         1    LIG17    0.0000
     32 H10        14.5200   -4.7900   -6.7530 H         1    LIG17    0.0000
     33 H11         6.0510    1.2860   -0.7490 H         1    LIG17    0.0000
     34 H12         5.9510   -0.4750   -0.9420 H         1    LIG17    0.0000
     35 H13         6.8070    0.2270    0.4570 H         1    LIG17    0.0000
@<TRIPOS>BOND
     1    1    2 1
     2    1    5 1
     3    1   23 1
     4    2    3 1
     5    2   24 1
     6    3    4 1
     7    3    9 2
     8    4    5 2
     9    4    6 1
    10    5   10 1
    11    6    7 2
    12    7    8 1
    13    8   16 2
    14    8   20 1
    15   10   11 2
    16   10   15 1
    17   11   12 1
    18   11   25 1
    19   12   13 2
    20   12   26 1
    21   13   14 1
    22   13   21 1
    23   14   15 2
    24   14   27 1
    25   15   28 1
    26   16   17 1
    27   16   29 1
    28   17   18 2
    29   18   19 1
    30   18   30 1
    31   19   20 2
    32   19   31 1
    33   20   32 1
    34   21   22 1
    35   22   33 1
    36   22   34 1
    37   22   35 1
@<TRIPOS>SUBSTRUCTURE
     1    LIG17    1   GROUP 1   LIG 1
@<TRIPOS>MOLECULE
50910188
   35    37    1     0     0
SMALL
USER_CHARGES


@<TRIPOS>ATOM
      1 N1          4.8790  -26.3990   -0.2990 N.pl3     1    LIG18    0.0000
      2 N2          5.7360  -27.2760   -0.7180 N.am      1    LIG18    0.0000
      3 C1          6.1000  -26.9890   -1.9730 C.2       1    LIG18    0.0000
      4 C2          5.4100  -25.8410   -2.3580 C.2       1    LIG18    0.0000
      5 C3          4.6360  -25.4810   -1.2550 C.2       1    LIG18    0.0000
      6 N3          5.4420  -25.2100   -3.5150 N.2       1    LIG18    0.0000
      7 N4          6.1250  -25.5480   -4.4740 N.2       1    LIG18    0.0000
      8 C4          6.1610  -24.9250   -5.6370 C.2       1    LIG18    0.0000
      9 O1          6.9070  -27.6530   -2.6590 O.2       1    LIG18    0.0000
     10 C5          3.7460  -24.3890   -1.1210 C.2       1    LIG18    0.0000
     11 C6          4.0450  -23.1390   -1.7030 C.2       1    LIG18    0.0000
     12 N5          3.1960  -22.0930   -1.5610 N.2       1    LIG18    0.0000
     13 C7          2.0370  -22.1810   -0.8670 C.2       1    LIG18    0.0000
     14 C8          1.6820  -23.3960   -0.2670 C.2       1    LIG18    0.0000
     15 C9          2.5390  -24.5110   -0.3910 C.2       1    LIG18    0.0000
     16 C10         5.3990  -23.7680   -5.9170 C.2       1    LIG18    0.0000
     17 C11         5.4790  -23.1500   -7.1760 C.2       1    LIG18    0.0000
     18 C12         6.3190  -23.6830   -8.1680 C.2       1    LIG18    0.0000
     19 C13         7.0830  -24.8310   -7.8970 C.2       1    LIG18    0.0000
     20 C14         7.0030  -25.4480   -6.6370 C.2       1    LIG18    0.0000
     21 O2          2.2340  -25.7230    0.1710 O.3       1    LIG18    0.0000
     22 C15         0.9810  -26.0010    0.8040 C.3       1    LIG18    0.0000
     23 H1          4.4600  -26.4040    0.5770 H         1    LIG18    0.0000
     24 H2          6.0650  -28.0320   -0.2060 H         1    LIG18    0.0000
     25 H3          4.9070  -23.0010   -2.2330 H         1    LIG18    0.0000
     26 H4          1.4270  -21.3680   -0.7830 H         1    LIG18    0.0000
     27 H5          0.8080  -23.4630    0.2550 H         1    LIG18    0.0000
     28 H6          4.7840  -23.3740   -5.2040 H         1    LIG18    0.0000
     29 H7          4.9250  -22.3160   -7.3710 H         1    LIG18    0.0000
     30 H8          6.3750  -23.2360   -9.0840 H         1    LIG18    0.0000
     31 H9          7.6960  -25.2160   -8.6160 H         1    LIG18    0.0000
     32 H10         7.5610  -26.2820   -6.4500 H         1    LIG18    0.0000
     33 H11         0.9800  -27.0370    1.1400 H         1    LIG18    0.0000
     34 H12         0.8410  -25.3510    1.6690 H         1    LIG18    0.0000
     35 H13         0.1610  -25.8570    0.0990 H         1    LIG18    0.0000
@<TRIPOS>BOND
     1    1    2 1
     2    1    5 1
     3    1   23 1
     4    2    3 1
     5    2   24 1
     6    3    4 1
     7    3    9 2
     8    4    5 2
     9    4    6 1
    10    5   10 1
    11    6    7 2
    12    7    8 1
    13    8   16 2
    14    8   20 1
    15   10   11 2
    16   10   15 1
    17   11   12 1
    18   11   25 1
    19   12   13 2
    20   13   14 1
    21   13   26 1
    22   14   15 2
    23   14   27 1
    24   15   21 1
    25   16   17 1
    26   16   28 1
    27   17   18 2
    28   17   29 1
    29   18   19 1
    30   18   30 1
    31   19   20 2
    32   19   31 1
    33   20   32 1
    34   21   22 1
    35   22   33 1
    36   22   34 1
    37   22   35 1
@<TRIPOS>SUBSTRUCTURE
     1    LIG18    1   GROUP 1   LIG 1
@<TRIPOS>MOLECULE
184848
   33    36    1     0     0
SMALL
USER_CHARGES


@<TRIPOS>ATOM
      1 C1          1.1810    2.8830   -0.2130 C.2       1    LIG19    0.0000
      2 C2          1.3070    1.7610    0.7180 C.3       1    LIG19    0.0000
      3 O1          2.1240    3.1050   -1.0020 O.2       1    LIG19    0.0000
      4 N1          0.2030    3.8110   -0.1490 N.am      1    LIG19    0.0000
      5 C3         -1.6860    2.6450    1.0210 C.2       1    LIG19    0.0000
      6 C4         -1.0000    3.7810    0.4950 C.2       1    LIG19    0.0000
      7 C5         -1.6340    5.0420    0.5220 C.2       1    LIG19    0.0000
      8 C6         -2.9120    5.2040    1.0730 C.2       1    LIG19    0.0000
      9 C7         -3.5900    4.0950    1.5890 C.2       1    LIG19    0.0000
     10 C8         -2.9870    2.8290    1.5510 C.2       1    LIG19    0.0000
     11 C9          0.1250    0.8970    0.7470 C.2       1    LIG19    0.0000
     12 C10        -1.1910    1.3160    0.9710 C.2       1    LIG19    0.0000
     13 N2         -1.9480    0.2080    1.1260 N.pl3     1    LIG19    0.0000
     14 C11         0.1120   -0.4950    0.7290 C.2       1    LIG19    0.0000
     15 C12        -1.1970   -0.8900    0.9700 C.2       1    LIG19    0.0000
     16 C13         0.8140   -2.8260    0.6090 C.2       1    LIG19    0.0000
     17 C14         1.1330   -1.4450    0.5560 C.2       1    LIG19    0.0000
     18 C15        -1.5480   -2.2450    1.0300 C.2       1    LIG19    0.0000
     19 C16        -0.5340   -3.2050    0.8450 C.2       1    LIG19    0.0000
     20 N3          1.7870   -3.7720    0.4370 N.pl3     1    LIG19    0.0000
     21 O2          1.5430   -4.9500    0.4760 O.2       1    LIG19    0.0000
     22 O3          2.9380   -3.4740    0.2390 O.3       1    LIG19    0.0000
     23 H1          1.4480    2.1730    1.7170 H         1    LIG19    0.0000
     24 H2          2.1960    1.1810    0.4640 H         1    LIG19    0.0000
     25 H3          0.3930    4.6260   -0.6410 H         1    LIG19    0.0000
     26 H4         -1.1610    5.8590    0.1330 H         1    LIG19    0.0000
     27 H5         -3.3500    6.1260    1.0900 H         1    LIG19    0.0000
     28 H6         -4.5250    4.2050    1.9840 H         1    LIG19    0.0000
     29 H7         -3.5130    2.0380    1.9260 H         1    LIG19    0.0000
     30 H8         -2.9020    0.2050    1.2970 H         1    LIG19    0.0000
     31 H9          2.0940   -1.1420    0.3920 H         1    LIG19    0.0000
     32 H10        -2.5120   -2.5290    1.2070 H         1    LIG19    0.0000
     33 H11        -0.7810   -4.1950    0.8870 H         1    LIG19    0.0000
@<TRIPOS>BOND
     1    1    2 1
     2    1    3 2
     3    1    4 1
     4    2   11 1
     5    2   23 1
     6    2   24 1
     7    4    6 1
     8    4   25 1
     9    5    6 1
    10    5   10 2
    11    5   12 1
    12    6    7 2
    13    7    8 1
    14    7   26 1
    15    8    9 2
    16    8   27 1
    17    9   10 1
    18    9   28 1
    19   10   29 1
    20   11   12 2
    21   11   14 1
    22   12   13 1
    23   13   15 1
    24   13   30 1
    25   14   15 1
    26   14   17 2
    27   15   18 2
    28   16   17 1
    29   16   19 2
    30   16   20 1
    31   17   31 1
    32   18   19 1
    33   18   32 1
    34   19   33 1
    35   20   21 2
    36   20   22 1
@<TRIPOS>SUBSTRUCTURE
     1    LIG19    1   GROUP 1   LIG 1
@<TRIPOS>MOLECULE
50839928
   38    41    1     0     0
SMALL
USER_CHARGES


@<TRIPOS>ATOM
      1 C1         26.0010  -11.9650    0.6650 C.1       1    LIG20    0.0000
      2 C2         27.0720  -11.2250    0.7100 C.2       1    LIG20    0.0000
      3 C3         26.9610   -9.8290    0.6980 C.2       1    LIG20    0.0000
      4 C4         28.1040   -9.0080    0.7570 C.2       1    LIG20    0.0000
      5 C5         29.4200   -9.5750    0.8300 C.2       1    LIG20    0.0000
      6 C6         29.5120  -11.0020    0.8230 C.2       1    LIG20    0.0000
      7 C7         28.3490  -11.8020    0.7700 C.2       1    LIG20    0.0000
      8 N1         25.0610  -12.6260    0.6270 N.1       1    LIG20    0.0000
      9 C8         34.0550   -7.8450    1.3470 C.2       1    LIG20    0.0000
     10 C9         32.6710   -8.0380    1.1470 C.2       1    LIG20    0.0000
     11 C10        31.8720   -6.9800    0.7390 C.2       1    LIG20    0.0000
     12 C11        32.3820   -5.6980    0.5220 C.2       1    LIG20    0.0000
     13 C12        33.7590   -5.5230    0.7330 C.2       1    LIG20    0.0000
     14 N2         34.5200   -6.5810    1.1240 N.2       1    LIG20    0.0000
     15 C13        30.5960   -8.7470    0.8950 C.2       1    LIG20    0.0000
     16 N3         31.8620   -9.1030    1.2320 N.pl3     1    LIG20    0.0000
     17 N4         30.6190   -7.4270    0.6010 N.2       1    LIG20    0.0000
     18 N5         34.8830   -8.8460    1.7690 N.pl3     1    LIG20    0.0000
     19 C14        38.2550   -7.6990    1.1070 C.2       1    LIG20    0.0000
     20 N6         36.9090   -7.7860    1.1420 N.2       1    LIG20    0.0000
     21 C15        36.2490   -8.7850    1.7840 C.2       1    LIG20    0.0000
     22 C16        37.0110   -9.7740    2.4370 C.2       1    LIG20    0.0000
     23 C17        38.4140   -9.6470    2.4320 C.2       1    LIG20    0.0000
     24 N7         38.9910   -8.6250    1.7600 N.2       1    LIG20    0.0000
     25 C18        39.2890  -10.5750    3.1600 C.3       1    LIG20    0.0000
     26 Cl1        30.9560  -11.9010    0.7870 Cl        1    LIG20    0.0000
     27 Cl2        27.7400   -7.3450    0.7950 Cl        1    LIG20    0.0000
     28 H1         26.0320   -9.4050    0.6540 H         1    LIG20    0.0000
     29 H2         28.4240  -12.8270    0.7640 H         1    LIG20    0.0000
     30 H3         31.7880   -4.9300    0.2170 H         1    LIG20    0.0000
     31 H4         34.1890   -4.6090    0.5950 H         1    LIG20    0.0000
     32 H5         32.1440   -9.9880    1.5000 H         1    LIG20    0.0000
     33 H6         34.4700   -9.6630    2.0880 H         1    LIG20    0.0000
     34 H7         38.7140   -6.9430    0.6000 H         1    LIG20    0.0000
     35 H8         36.5640  -10.5490    2.9280 H         1    LIG20    0.0000
     36 H9         40.3320  -10.2740    3.0370 H         1    LIG20    0.0000
     37 H10        39.0460  -10.5530    4.2220 H         1    LIG20    0.0000
     38 H11        39.1680  -11.5890    2.7810 H         1    LIG20    0.0000
@<TRIPOS>BOND
     1    1    2 1
     2    1    8 3
     3    2    3 1
     4    2    7 2
     5    3    4 2
     6    3   28 1
     7    4    5 1
     8    4   27 1
     9    5    6 2
    10    5   15 1
    11    6    7 1
    12    6   26 1
    13    7   29 1
    14    9   10 1
    15    9   14 2
    16    9   18 1
    17   10   11 2
    18   10   16 1
    19   11   12 1
    20   11   17 1
    21   12   13 2
    22   12   30 1
    23   13   14 1
    24   13   31 1
    25   15   16 1
    26   15   17 2
    27   16   32 1
    28   18   21 1
    29   18   33 1
    30   19   20 1
    31   19   24 2
    32   19   34 1
    33   20   21 2
    34   21   22 1
    35   22   23 2
    36   22   35 1
    37   23   24 1
    38   23   25 1
    39   25   36 1
    40   25   37 1
    41   25   38 1
@<TRIPOS>SUBSTRUCTURE
     1    LIG20    1   GROUP 1   LIG 1
@<TRIPOS>MOLECULE
50910145
   40    42    1     0     0
SMALL
USER_CHARGES


@<TRIPOS>ATOM
      1 N1         -2.9650   -5.3490    0.4990 N.pl3     1    LIG21    0.0000
      2 N2         -1.9370   -6.1180    0.6740 N.am      1    LIG21    0.0000
      3 C1         -0.9060   -5.3970    1.1320 C.2       1    LIG21    0.0000
      4 C2         -1.3270   -4.0800    1.2540 C.2       1    LIG21    0.0000
      5 C3         -2.6570   -4.0810    0.8270 C.2       1    LIG21    0.0000
      6 N3         -0.5710   -3.0970    1.7040 N.2       1    LIG21    0.0000
      7 N4         -0.9490   -1.9410    1.8460 N.2       1    LIG21    0.0000
      8 C4         -0.2210   -0.9350    2.2860 C.2       1    LIG21    0.0000
      9 O1          0.2270   -5.8490    1.4070 O.2       1    LIG21    0.0000
     10 C5         -3.5570   -3.0030    0.7330 C.2       1    LIG21    0.0000
     11 C6         -4.7750   -3.0380    1.4400 C.2       1    LIG21    0.0000
     12 C7         -5.6810   -1.9670    1.3460 C.2       1    LIG21    0.0000
     13 C8         -5.3900   -0.8490    0.5430 C.2       1    LIG21    0.0000
     14 C9         -4.1750   -0.8190   -0.1720 C.2       1    LIG21    0.0000
     15 C10        -3.2680   -1.8890   -0.0820 C.2       1    LIG21    0.0000
     16 C11        -0.8470    0.3210    2.3930 C.2       1    LIG21    0.0000
     17 C12        -0.1380    1.4490    2.8450 C.2       1    LIG21    0.0000
     18 C13         1.2210    1.3090    3.1960 C.2       1    LIG21    0.0000
     19 C14         1.8560    0.0600    3.0950 C.2       1    LIG21    0.0000
     20 C15         1.1380   -1.0590    2.6420 C.2       1    LIG21    0.0000
     21 O2         -6.3190    0.1510    0.5050 O.3       1    LIG21    0.0000
     22 C16        -6.1230    1.3530   -0.2460 C.3       1    LIG21    0.0000
     23 O3         -0.8250    2.6270    2.9170 O.3       1    LIG21    0.0000
     24 C17        -0.2150    3.8470    3.3460 C.3       1    LIG21    0.0000
     25 H1         -3.8300   -5.6410    0.1700 H         1    LIG21    0.0000
     26 H2         -1.9120   -7.0720    0.5030 H         1    LIG21    0.0000
     27 H3         -5.0090   -3.8370    2.0320 H         1    LIG21    0.0000
     28 H4         -6.5580   -2.0010    1.8670 H         1    LIG21    0.0000
     29 H5         -3.9440   -0.0190   -0.7610 H         1    LIG21    0.0000
     30 H6         -2.3950   -1.8470   -0.6100 H         1    LIG21    0.0000
     31 H7         -1.8320    0.4190    2.1380 H         1    LIG21    0.0000
     32 H8          1.7530    2.1140    3.5250 H         1    LIG21    0.0000
     33 H9          2.8400   -0.0350    3.3500 H         1    LIG21    0.0000
     34 H10         1.6070   -1.9630    2.5710 H         1    LIG21    0.0000
     35 H11        -6.9960    1.9940   -0.1210 H         1    LIG21    0.0000
     36 H12        -5.2420    1.8850    0.1170 H         1    LIG21    0.0000
     37 H13        -6.0040    1.1240   -1.3060 H         1    LIG21    0.0000
     38 H14        -0.9600    4.6420    3.3180 H         1    LIG21    0.0000
     39 H15         0.1550    3.7470    4.3670 H         1    LIG21    0.0000
     40 H16         0.6080    4.1130    2.6800 H         1    LIG21    0.0000
@<TRIPOS>BOND
     1    1    2 1
     2    1    5 1
     3    1   25 1
     4    2    3 1
     5    2   26 1
     6    3    4 1
     7    3    9 2
     8    4    5 2
     9    4    6 1
    10    5   10 1
    11    6    7 2
    12    7    8 1
    13    8   16 2
    14    8   20 1
    15   10   11 1
    16   10   15 2
    17   11   12 2
    18   11   27 1
    19   12   13 1
    20   12   28 1
    21   13   14 2
    22   13   21 1
    23   14   15 1
    24   14   29 1
    25   15   30 1
    26   16   17 1
    27   16   31 1
    28   17   18 2
    29   17   23 1
    30   18   19 1
    31   18   32 1
    32   19   20 2
    33   19   33 1
    34   20   34 1
    35   21   22 1
    36   22   35 1
    37   22   36 1
    38   22   37 1
    39   23   24 1
    40   24   38 1
    41   24   39 1
    42   24   40 1
@<TRIPOS>SUBSTRUCTURE
     1    LIG21    1   GROUP 1   LIG 1
@<TRIPOS>MOLECULE
50436576
   37    39    1     0     0
SMALL
USER_CHARGES


@<TRIPOS>ATOM
      1 C1         -2.1510  -13.3790    2.5320 C.3       1    LIG22    0.0000
      2 C2         -2.6800  -12.5470    1.4410 C.2       1    LIG22    0.0000
      3 C3         -2.7890  -11.1550    1.6140 C.2       1    LIG22    0.0000
      4 C4         -3.2970  -10.3400    0.5860 C.2       1    LIG22    0.0000
      5 C5         -3.4120   -8.8880    0.7960 C.3       1    LIG22    0.0000
      6 C6         -3.6910  -10.9310   -0.6310 C.2       1    LIG22    0.0000
      7 C7         -3.5760  -12.3190   -0.8310 C.2       1    LIG22    0.0000
      8 N1         -3.9940  -12.8140   -2.0250 N.pl3     1    LIG22    0.0000
      9 C8         -3.4400  -13.8350   -2.7230 C.2       1    LIG22    0.0000
     10 N2         -3.9990  -14.1670   -3.9100 N.2       1    LIG22    0.0000
     11 C9         -3.5080  -15.1690   -4.6780 C.2       1    LIG22    0.0000
     12 C10        -2.3880  -15.8950   -4.2520 C.2       1    LIG22    0.0000
     13 C11        -1.8090  -15.5440   -3.0190 C.2       1    LIG22    0.0000
     14 N3         -2.3520  -14.5290   -2.3040 N.2       1    LIG22    0.0000
     15 C12        -0.6900  -16.2110   -2.4960 C.2       1    LIG22    0.0000
     16 N4         -0.0730  -17.2360   -3.1130 N.2       1    LIG22    0.0000
     17 C13         0.9640  -17.7080   -2.4120 C.2       1    LIG22    0.0000
     18 C14         1.7900  -18.8260   -2.8730 C.3       1    LIG22    0.0000
     19 C15         1.1490  -17.0240   -1.2180 C.2       1    LIG22    0.0000
     20 S1         -0.0030  -15.7590   -0.9690 S.3       1    LIG22    0.0000
     21 C16        -3.0850  -13.1230    0.2200 C.2       1    LIG22    0.0000
     22 H1         -2.1300  -14.4330    2.2500 H         1    LIG22    0.0000
     23 H2         -1.1350  -13.0620    2.7730 H         1    LIG22    0.0000
     24 H3         -2.7790  -13.2660    3.4170 H         1    LIG22    0.0000
     25 H4         -2.4990  -10.7320    2.4980 H         1    LIG22    0.0000
     26 H5         -3.8230   -8.3930   -0.0860 H         1    LIG22    0.0000
     27 H6         -4.0680   -8.6930    1.6440 H         1    LIG22    0.0000
     28 H7         -2.4260   -8.4700    1.0040 H         1    LIG22    0.0000
     29 H8         -4.0600  -10.3430   -1.3800 H         1    LIG22    0.0000
     30 H9         -4.7390  -12.3610   -2.4490 H         1    LIG22    0.0000
     31 H10        -3.9550  -15.3940   -5.5670 H         1    LIG22    0.0000
     32 H11        -2.0130  -16.6520   -4.8250 H         1    LIG22    0.0000
     33 H12         2.5780  -19.0500   -2.1520 H         1    LIG22    0.0000
     34 H13         1.1620  -19.7080   -3.0020 H         1    LIG22    0.0000
     35 H14         2.2440  -18.5670   -3.8300 H         1    LIG22    0.0000
     36 H15         1.8890  -17.2440   -0.5520 H         1    LIG22    0.0000
     37 H16        -3.0230  -14.1340    0.1020 H         1    LIG22    0.0000
@<TRIPOS>BOND
     1    1    2 1
     2    1   22 1
     3    1   23 1
     4    1   24 1
     5    2    3 2
     6    2   21 1
     7    3    4 1
     8    3   25 1
     9    4    5 1
    10    4    6 2
    11    5   26 1
    12    5   27 1
    13    5   28 1
    14    6    7 1
    15    6   29 1
    16    7    8 1
    17    7   21 2
    18    8    9 1
    19    8   30 1
    20    9   10 2
    21    9   14 1
    22   10   11 1
    23   11   12 2
    24   11   31 1
    25   12   13 1
    26   12   32 1
    27   13   14 2
    28   13   15 1
    29   15   16 2
    30   15   20 1
    31   16   17 1
    32   17   18 1
    33   17   19 2
    34   18   33 1
    35   18   34 1
    36   18   35 1
    37   19   20 1
    38   19   36 1
    39   21   37 1
@<TRIPOS>SUBSTRUCTURE
     1    LIG22    1   GROUP 1   LIG 1
@<TRIPOS>MOLECULE
50077211
   61    64    1     0     0
SMALL
USER_CHARGES


@<TRIPOS>ATOM
      1 C1          4.3640  -23.8170    0.5470 C.2       1    LIG23    0.0000
      2 C2          4.2150  -24.9990   -0.2140 C.2       1    LIG23    0.0000
      3 C3          4.6200  -26.2430    0.2910 C.2       1    LIG23    0.0000
      4 C4          4.9400  -23.9260    1.8370 C.2       1    LIG23    0.0000
      5 C5          5.3660  -25.1670    2.3640 C.2       1    LIG23    0.0000
      6 C6          5.1890  -26.3290    1.5700 C.2       1    LIG23    0.0000
      7 N1          5.5650  -27.5400    2.0440 N.2       1    LIG23    0.0000
      8 C7          6.1180  -27.7300    3.2690 C.2       1    LIG23    0.0000
      9 C8          6.3170  -26.6070    4.0950 C.2       1    LIG23    0.0000
     10 C9          5.9510  -25.3200    3.6490 C.2       1    LIG23    0.0000
     11 C10         3.9450  -22.5550    0.0300 C.2       1    LIG23    0.0000
     12 C11         6.1890  -24.2590    4.4990 C.2       1    LIG23    0.0000
     13 O1          6.7670  -23.2540    4.1170 O.2       1    LIG23    0.0000
     14 O2          5.8620  -24.3300    5.7770 O.3       1    LIG23    0.0000
     15 C12         6.4710  -29.0340    3.6690 C.2       1    LIG23    0.0000
     16 N2          6.2460  -30.0660    2.8260 N.am      1    LIG23    0.0000
     17 O3          6.9730  -29.2540    4.7960 O.2       1    LIG23    0.0000
     18 C13         6.5280  -31.4290    3.1300 C.3       1    LIG23    0.0000
     19 C14         8.0490  -31.6740    3.1720 C.3       1    LIG23    0.0000
     20 C15         5.8900  -32.3330    2.0510 C.3       1    LIG23    0.0000
     21 C16         4.4260  -32.1570    1.9490 C.2       1    LIG23    0.0000
     22 C17         3.5900  -32.5240    3.0240 C.2       1    LIG23    0.0000
     23 C18         2.1980  -32.3500    2.9360 C.2       1    LIG23    0.0000
     24 C19         1.6290  -31.8080    1.7710 C.2       1    LIG23    0.0000
     25 C20         2.4540  -31.4430    0.6930 C.2       1    LIG23    0.0000
     26 C21         3.8460  -31.6190    0.7820 C.2       1    LIG23    0.0000
     27 C22         3.3520  -21.5820    0.8690 C.2       1    LIG23    0.0000
     28 C23         2.9340  -20.3440    0.3590 C.2       1    LIG23    0.0000
     29 C24         3.1040  -20.0540   -1.0030 C.2       1    LIG23    0.0000
     30 C25         3.6950  -20.9930   -1.8750 C.2       1    LIG23    0.0000
     31 C26         4.1070  -22.2350   -1.3400 C.2       1    LIG23    0.0000
     32 C27         3.8630  -20.6470   -3.3120 C.3       1    LIG23    0.0000
     33 F1          4.4540  -21.6370   -4.0640 F         1    LIG23    0.0000
     34 F2          2.6400  -20.3890   -3.8820 F         1    LIG23    0.0000
     35 F3          4.6470  -19.5260   -3.4400 F         1    LIG23    0.0000
     36 O4          0.2900  -31.6410    1.6930 O.3       1    LIG23    0.0000
     37 O5          8.3140  -33.0440    3.4620 O.3       1    LIG23    0.0000
     38 C28         9.6840  -33.4340    3.5020 C.3       1    LIG23    0.0000
     39 H1          3.7940  -24.9670   -1.1440 H         1    LIG23    0.0000
     40 H2          4.4960  -27.0850   -0.2730 H         1    LIG23    0.0000
     41 H3          5.0580  -23.0800    2.3970 H         1    LIG23    0.0000
     42 H4          6.7350  -26.7250    5.0210 H         1    LIG23    0.0000
     43 H5          6.1070  -23.5310    6.2880 H         1    LIG23    0.0000
     44 H6          5.8280  -29.8640    1.9740 H         1    LIG23    0.0000
     45 H7          6.1060  -31.6840    4.1050 H         1    LIG23    0.0000
     46 H8          8.4850  -31.4130    2.2060 H         1    LIG23    0.0000
     47 H9          8.5010  -31.0530    3.9470 H         1    LIG23    0.0000
     48 H10         6.3650  -32.1110    1.0930 H         1    LIG23    0.0000
     49 H11         6.0980  -33.3760    2.2930 H         1    LIG23    0.0000
     50 H12         3.9950  -32.9180    3.8740 H         1    LIG23    0.0000
     51 H13         1.6010  -32.6170    3.7190 H         1    LIG23    0.0000
     52 H14         2.0450  -31.0500   -0.1550 H         1    LIG23    0.0000
     53 H15         4.4370  -31.3490   -0.0050 H         1    LIG23    0.0000
     54 H16         3.2070  -21.7730    1.8610 H         1    LIG23    0.0000
     55 H17         2.5050  -19.6560    0.9780 H         1    LIG23    0.0000
     56 H18         2.7960  -19.1500   -1.3620 H         1    LIG23    0.0000
     57 H19         4.5450  -22.9150   -1.9630 H         1    LIG23    0.0000
     58 H20        -0.0250  -31.2560    0.8490 H         1    LIG23    0.0000
     59 H21         9.7460  -34.4980    3.7270 H         1    LIG23    0.0000
     60 H22        10.1510  -33.2440    2.5360 H         1    LIG23    0.0000
     61 H23        10.2070  -32.8720    4.2770 H         1    LIG23    0.0000
@<TRIPOS>BOND
     1    1    2 2
     2    1    4 1
     3    1   11 1
     4    2    3 1
     5    2   39 1
     6    3    6 2
     7    3   40 1
     8    4    5 2
     9    4   41 1
    10    5    6 1
    11    5   10 1
    12    6    7 1
    13    7    8 2
    14    8    9 1
    15    8   15 1
    16    9   10 2
    17    9   42 1
    18   10   12 1
    19   11   27 2
    20   11   31 1
    21   12   13 2
    22   12   14 1
    23   14   43 1
    24   15   16 1
    25   15   17 2
    26   18   16 1
    27   16   44 1
    28   18   19 1
    29   18   20 1
    30   18   45 1
    31   19   37 1
    32   19   46 1
    33   19   47 1
    34   20   21 1
    35   20   48 1
    36   20   49 1
    37   21   22 2
    38   21   26 1
    39   22   23 1
    40   22   50 1
    41   23   24 2
    42   23   51 1
    43   24   25 1
    44   24   36 1
    45   25   26 2
    46   25   52 1
    47   26   53 1
    48   27   28 1
    49   27   54 1
    50   28   29 2
    51   28   55 1
    52   29   30 1
    53   29   56 1
    54   30   31 2
    55   30   32 1
    56   31   57 1
    57   32   33 1
    58   32   34 1
    59   32   35 1
    60   36   58 1
    61   37   38 1
    62   38   59 1
    63   38   60 1
    64   38   61 1
@<TRIPOS>SUBSTRUCTURE
     1    LIG23    1   GROUP 1   LIG 1
@<TRIPOS>MOLECULE
50077178
   62    65    1     0     0
SMALL
USER_CHARGES


@<TRIPOS>ATOM
      1 C1          6.5550   -7.8450    0.9010 C.2       1    LIG24    0.0000
      2 C2          6.7800   -9.1840    0.5210 C.2       1    LIG24    0.0000
      3 C3          7.9340   -9.8640    0.9400 C.2       1    LIG24    0.0000
      4 C4          7.5170   -7.1960    1.7070 C.2       1    LIG24    0.0000
      5 C5          8.6820   -7.8640    2.1500 C.2       1    LIG24    0.0000
      6 C6          8.8810   -9.2090    1.7440 C.2       1    LIG24    0.0000
      7 N1          9.9990   -9.8740    2.1220 N.2       1    LIG24    0.0000
      8 C7         10.9760   -9.3270    2.8880 C.2       1    LIG24    0.0000
      9 C8         10.8210   -7.9960    3.3230 C.2       1    LIG24    0.0000
     10 C9          9.6740   -7.2580    2.9630 C.2       1    LIG24    0.0000
     11 C10         5.4180   -7.2030    0.4420 C.2       1    LIG24    0.0000
     12 C11         9.5620   -5.9670    3.4350 C.2       1    LIG24    0.0000
     13 O1         10.4880   -5.1760    3.3380 O.2       1    LIG24    0.0000
     14 O2          8.4680   -5.5620    4.0550 O.3       1    LIG24    0.0000
     15 C12        12.1050  -10.1010    3.2210 C.2       1    LIG24    0.0000
     16 N2         12.2010  -11.3650    2.7490 N.am      1    LIG24    0.0000
     17 O3         13.0140   -9.6390    3.9490 O.2       1    LIG24    0.0000
     18 C13        13.2800  -12.2550    3.0270 C.3       1    LIG24    0.0000
     19 C14        13.8630  -12.6920    1.7470 C.2       1    LIG24    0.0000
     20 C15        12.7630  -13.4710    3.8310 C.3       1    LIG24    0.0000
     21 C16        12.1770  -13.0790    5.1310 C.2       1    LIG24    0.0000
     22 C17        10.8020  -13.2610    5.3830 C.2       1    LIG24    0.0000
     23 C18        10.2450  -12.8710    6.6130 C.2       1    LIG24    0.0000
     24 C19        11.0590  -12.2970    7.6040 C.2       1    LIG24    0.0000
     25 C20        12.4320  -12.1150    7.3630 C.2       1    LIG24    0.0000
     26 C21        12.9880  -12.5060    6.1330 C.2       1    LIG24    0.0000
     27 C22         4.7680   -6.2460    1.1250 C.2       1    LIG24    0.0000
     28 O4         10.5170  -11.9220    8.7830 O.3       1    LIG24    0.0000
     29 C23         3.6410   -5.5930    0.6590 C.2       1    LIG24    0.0000
     30 C24         2.6800   -6.2280   -0.1600 C.2       1    LIG24    0.0000
     31 C25         1.5450   -5.5300   -0.6080 C.2       1    LIG24    0.0000
     32 C26         1.3500   -4.1870   -0.2380 C.2       1    LIG24    0.0000
     33 C27         2.2950   -3.5480    0.5850 C.2       1    LIG24    0.0000
     34 C28         3.4290   -4.2490    1.0310 C.2       1    LIG24    0.0000
     35 Cl1        -0.0150   -3.3470   -0.7790 Cl        1    LIG24    0.0000
     36 N3         15.1540  -12.4160    1.4660 N.am      1    LIG24    0.0000
     37 O5         13.1530  -13.3130    0.9230 O.2       1    LIG24    0.0000
     38 C29        15.7730  -12.8000    0.2490 C.3       1    LIG24    0.0000
     39 H1          6.1020   -9.6730   -0.0660 H         1    LIG24    0.0000
     40 H2          8.0850  -10.8320    0.6540 H         1    LIG24    0.0000
     41 H3          7.3680   -6.2190    1.9620 H         1    LIG24    0.0000
     42 H4         11.5420   -7.5640    3.9070 H         1    LIG24    0.0000
     43 H5          5.0670   -7.4780   -0.4450 H         1    LIG24    0.0000
     44 H6          8.5150   -4.6340    4.3650 H         1    LIG24    0.0000
     45 H7         11.4780  -11.6910    2.1890 H         1    LIG24    0.0000
     46 H8         14.0610  -11.7580    3.6080 H         1    LIG24    0.0000
     47 H9         12.0180  -13.9980    3.2300 H         1    LIG24    0.0000
     48 H10        13.5910  -14.1580    4.0160 H         1    LIG24    0.0000
     49 H11        10.2010  -13.6720    4.6680 H         1    LIG24    0.0000
     50 H12         9.2480  -13.0040    6.7850 H         1    LIG24    0.0000
     51 H13        13.0270  -11.6990    8.0800 H         1    LIG24    0.0000
     52 H14        13.9850  -12.3670    5.9650 H         1    LIG24    0.0000
     53 H15         5.1190   -5.9710    2.0120 H         1    LIG24    0.0000
     54 H16        11.1510  -11.5250    9.4160 H         1    LIG24    0.0000
     55 H17         2.7980   -7.2040   -0.4320 H         1    LIG24    0.0000
     56 H18         0.8660   -6.0090   -1.2020 H         1    LIG24    0.0000
     57 H19         2.1670   -2.5740    0.8630 H         1    LIG24    0.0000
     58 H20         4.1050   -3.7690    1.6280 H         1    LIG24    0.0000
     59 H21        15.6770  -11.9290    2.1220 H         1    LIG24    0.0000
     60 H22        16.8090  -12.4640    0.2520 H         1    LIG24    0.0000
     61 H23        15.7500  -13.8860    0.1450 H         1    LIG24    0.0000
     62 H24        15.2530  -12.3450   -0.5950 H         1    LIG24    0.0000
@<TRIPOS>BOND
     1    1    2 2
     2    1    4 1
     3    1   11 1
     4    2    3 1
     5    2   39 1
     6    3    6 2
     7    3   40 1
     8    4    5 2
     9    4   41 1
    10    5    6 1
    11    5   10 1
    12    6    7 1
    13    7    8 2
    14    8    9 1
    15    8   15 1
    16    9   10 2
    17    9   42 1
    18   10   12 1
    19   11   27 2
    20   11   43 1
    21   12   13 2
    22   12   14 1
    23   14   44 1
    24   15   16 1
    25   15   17 2
    26   18   16 1
    27   16   45 1
    28   18   19 1
    29   18   20 1
    30   18   46 1
    31   19   36 1
    32   19   37 2
    33   20   21 1
    34   20   47 1
    35   20   48 1
    36   21   22 2
    37   21   26 1
    38   22   23 1
    39   22   49 1
    40   23   24 2
    41   23   50 1
    42   24   25 1
    43   24   28 1
    44   25   26 2
    45   25   51 1
    46   26   52 1
    47   27   29 1
    48   27   53 1
    49   28   54 1
    50   29   30 2
    51   29   34 1
    52   30   31 1
    53   30   55 1
    54   31   32 2
    55   31   56 1
    56   32   33 1
    57   32   35 1
    58   33   34 2
    59   33   57 1
    60   34   58 1
    61   36   38 1
    62   36   59 1
    63   38   60 1
    64   38   61 1
    65   38   62 1
@<TRIPOS>SUBSTRUCTURE
     1    LIG24    1   GROUP 1   LIG 1
@<TRIPOS>MOLECULE
184851
   52    54    1     0     0
SMALL
USER_CHARGES


@<TRIPOS>ATOM
      1 Cl1         3.3130   -2.9460    1.6520 Cl        1    LIG25    0.0000
      2 O1          3.7810   -9.5990    1.5950 O.3       1    LIG25    0.0000
      3 N1          6.2120   -8.1540    2.0150 N.pl3     1    LIG25    0.0000
      4 N2         10.7720   -7.7290    0.6630 N.pl3     1    LIG25    0.0000
      5 N3          8.4450   -8.0690    1.3470 N.2       1    LIG25    0.0000
      6 N4          7.2850   -6.0670    1.7430 N.2       1    LIG25    0.0000
      7 N5         10.7510   -5.4970    0.7190 N.2       1    LIG25    0.0000
      8 N6          8.3470   -3.9380    1.4860 N.pl3     1    LIG25    0.0000
      9 C1          4.9460   -7.5990    2.3630 C.3       1    LIG25    0.0000
     10 C2          4.6280   -7.9120    3.8440 C.3       1    LIG25    0.0000
     11 C3          3.9020   -8.1950    1.4010 C.3       1    LIG25    0.0000
     12 C4          5.6810   -7.2680    4.7630 C.3       1    LIG25    0.0000
     13 C5          3.2380   -7.3880    4.2470 C.3       1    LIG25    0.0000
     14 C6         11.2280   -9.0730    0.5000 C.3       1    LIG25    0.0000
     15 C7          9.5440   -7.3430    1.0340 C.2       1    LIG25    0.0000
     16 C8          7.3030   -7.4260    1.7020 C.2       1    LIG25    0.0000
     17 C9          9.5400   -5.9570    1.0650 C.2       1    LIG25    0.0000
     18 C10         8.3620   -5.2940    1.4340 C.2       1    LIG25    0.0000
     19 C11        11.4880   -6.5990    0.4770 C.2       1    LIG25    0.0000
     20 C12        11.6830   -9.3280   -0.9470 C.3       1    LIG25    0.0000
     21 C13        12.3740   -9.3830    1.4780 C.3       1    LIG25    0.0000
     22 C14         7.3060   -3.1530    1.8740 C.2       1    LIG25    0.0000
     23 C15         5.9550   -3.4330    1.5640 C.2       1    LIG25    0.0000
     24 C16         7.6100   -1.9850    2.5990 C.2       1    LIG25    0.0000
     25 C17         4.9260   -2.5810    2.0080 C.2       1    LIG25    0.0000
     26 C18         6.5870   -1.1280    3.0380 C.2       1    LIG25    0.0000
     27 C19         5.2450   -1.4280    2.7480 C.2       1    LIG25    0.0000
     28 H1          3.1330  -10.0330    1.0020 H         1    LIG25    0.0000
     29 H2          6.2910   -9.1190    1.9940 H         1    LIG25    0.0000
     30 H3          9.1830   -3.4890    1.2840 H         1    LIG25    0.0000
     31 H4          4.9360   -6.5140    2.2330 H         1    LIG25    0.0000
     32 H5          4.6480   -8.9920    3.9960 H         1    LIG25    0.0000
     33 H6          2.9340   -7.7220    1.5640 H         1    LIG25    0.0000
     34 H7          4.2110   -8.0030    0.3730 H         1    LIG25    0.0000
     35 H8          5.4300   -7.4620    5.8060 H         1    LIG25    0.0000
     36 H9          6.6640   -7.6920    4.5550 H         1    LIG25    0.0000
     37 H10         5.7110   -6.1910    4.5940 H         1    LIG25    0.0000
     38 H11         3.0890   -7.5250    5.3190 H         1    LIG25    0.0000
     39 H12         3.1560   -6.3270    4.0070 H         1    LIG25    0.0000
     40 H13         2.4630   -7.9400    3.7170 H         1    LIG25    0.0000
     41 H14        10.4130   -9.7660    0.7170 H         1    LIG25    0.0000
     42 H15        12.4670   -6.5790    0.1910 H         1    LIG25    0.0000
     43 H16        11.9630  -10.3750   -1.0620 H         1    LIG25    0.0000
     44 H17        10.8650   -9.1010   -1.6310 H         1    LIG25    0.0000
     45 H18        12.5410   -8.7000   -1.1900 H         1    LIG25    0.0000
     46 H19        12.6650  -10.4290    1.3800 H         1    LIG25    0.0000
     47 H20        13.2360   -8.7510    1.2620 H         1    LIG25    0.0000
     48 H21        12.0410   -9.2000    2.5000 H         1    LIG25    0.0000
     49 H22         5.7230   -4.2600    1.0130 H         1    LIG25    0.0000
     50 H23         8.5810   -1.7590    2.8180 H         1    LIG25    0.0000
     51 H24         6.8180   -0.2890    3.5690 H         1    LIG25    0.0000
     52 H25         4.5090   -0.8010    3.0750 H         1    LIG25    0.0000
@<TRIPOS>BOND
     1    1   25 1
     2    2   11 1
     3    2   28 1
     4    9    3 1
     5    3   16 1
     6    3   29 1
     7    4   14 1
     8    4   15 1
     9    4   19 1
    10    5   15 2
    11    5   16 1
    12    6   16 2
    13    6   18 1
    14    7   17 1
    15    7   19 2
    16    8   18 1
    17    8   22 1
    18    8   30 1
    19    9   10 1
    20    9   11 1
    21    9   31 1
    22   10   12 1
    23   10   13 1
    24   10   32 1
    25   11   33 1
    26   11   34 1
    27   12   35 1
    28   12   36 1
    29   12   37 1
    30   13   38 1
    31   13   39 1
    32   13   40 1
    33   14   20 1
    34   14   21 1
    35   14   41 1
    36   15   17 1
    37   17   18 2
    38   19   42 1
    39   20   43 1
    40   20   44 1
    41   20   45 1
    42   21   46 1
    43   21   47 1
    44   21   48 1
    45   22   23 2
    46   22   24 1
    47   23   25 1
    48   23   49 1
    49   24   26 2
    50   24   50 1
    51   25   27 2
    52   26   27 1
    53   26   51 1
    54   27   52 1
@<TRIPOS>SUBSTRUCTURE
     1    LIG25    1   GROUP 1   LIG 1
@<TRIPOS>MOLECULE
51251870
   36    38    1     0     0
SMALL
USER_CHARGES


@<TRIPOS>ATOM
      1 S1          4.6570   -3.9410    0.3540 S.3       1    LIG26    0.0000
      2 C1          3.8470   -5.4290    0.7260 C.2       1    LIG26    0.0000
      3 C2          4.5720   -6.6200    0.9480 C.2       1    LIG26    0.0000
      4 N1          3.9420   -7.7820    1.2620 N.2       1    LIG26    0.0000
      5 C3          4.6050   -8.9440    1.4930 C.2       1    LIG26    0.0000
      6 N2          5.9550   -8.9450    1.4080 N.2       1    LIG26    0.0000
      7 C4          6.6510   -7.8280    1.0970 C.2       1    LIG26    0.0000
      8 C5          5.9760   -6.6240    0.8580 C.2       1    LIG26    0.0000
      9 N3          3.9920  -10.1050    1.8260 N.pl3     1    LIG26    0.0000
     10 C6          2.6570  -10.2890    1.9730 C.2       1    LIG26    0.0000
     11 C7          1.7190   -9.8460    1.0170 C.2       1    LIG26    0.0000
     12 C8          0.3320  -10.0560    1.1920 C.2       1    LIG26    0.0000
     13 N4         -0.5690   -9.5990    0.2710 N.pl3     1    LIG26    0.0000
     14 O1         -1.7400   -9.8660    0.3410 O.2       1    LIG26    0.0000
     15 O2         -0.2370   -8.8960   -0.6510 O.3       1    LIG26    0.0000
     16 C9         -0.0960  -10.7490    2.3460 C.2       1    LIG26    0.0000
     17 C10         0.8300  -11.2170    3.2930 C.2       1    LIG26    0.0000
     18 C11         2.2020  -10.9900    3.1040 C.2       1    LIG26    0.0000
     19 C12         2.4580   -5.2670    0.7750 C.2       1    LIG26    0.0000
     20 N5          2.0680   -4.0090    0.5320 N.2       1    LIG26    0.0000
     21 C13         3.1000   -3.1900    0.2940 C.2       1    LIG26    0.0000
     22 C14         2.9320   -1.7670    0.0050 C.3       1    LIG26    0.0000
     23 C15         1.4690   -6.3160    1.0470 C.3       1    LIG26    0.0000
     24 H1          7.6690   -7.8620    1.0400 H         1    LIG26    0.0000
     25 H2          6.5040   -5.7810    0.6270 H         1    LIG26    0.0000
     26 H3          4.5680  -10.8590    2.0260 H         1    LIG26    0.0000
     27 H4          2.0510   -9.3630    0.1810 H         1    LIG26    0.0000
     28 H5         -1.0910  -10.9170    2.4990 H         1    LIG26    0.0000
     29 H6          0.5050  -11.7210    4.1180 H         1    LIG26    0.0000
     30 H7          2.8690  -11.3320    3.7970 H         1    LIG26    0.0000
     31 H8          1.8730   -1.5050    0.0180 H         1    LIG26    0.0000
     32 H9          3.4570   -1.1820    0.7600 H         1    LIG26    0.0000
     33 H10         3.3460   -1.5460   -0.9780 H         1    LIG26    0.0000
     34 H11         0.4650   -5.8920    1.0400 H         1    LIG26    0.0000
     35 H12         1.5330   -7.0800    0.2740 H         1    LIG26    0.0000
     36 H13         1.6580   -6.7630    2.0240 H         1    LIG26    0.0000
@<TRIPOS>BOND
     1    1    2 1
     2    1   21 1
     3    2    3 1
     4    2   19 2
     5    3    4 2
     6    3    8 1
     7    4    5 1
     8    5    6 2
     9    5    9 1
    10    6    7 1
    11    7    8 2
    12    7   24 1
    13    8   25 1
    14    9   10 1
    15    9   26 1
    16   10   11 2
    17   10   18 1
    18   11   12 1
    19   11   27 1
    20   12   13 1
    21   12   16 2
    22   13   14 2
    23   13   15 1
    24   16   17 1
    25   16   28 1
    26   17   18 2
    27   17   29 1
    28   18   30 1
    29   19   20 1
    30   19   23 1
    31   20   21 2
    32   21   22 1
    33   22   31 1
    34   22   32 1
    35   22   33 1
    36   23   34 1
    37   23   35 1
    38   23   36 1
@<TRIPOS>SUBSTRUCTURE
     1    LIG26    1   GROUP 1   LIG 1
@<TRIPOS>MOLECULE
50077215
   57    60    1     0     0
SMALL
USER_CHARGES


@<TRIPOS>ATOM
      1 C1         13.0510   -3.1640    0.4850 C.2       1    LIG27    0.0000
      2 C2         13.1130   -4.4060   -0.1880 C.2       1    LIG27    0.0000
      3 C3         13.7940   -5.5000    0.3660 C.2       1    LIG27    0.0000
      4 C4         13.6970   -3.0590    1.7400 C.2       1    LIG27    0.0000
      5 C5         14.3810   -4.1500    2.3250 C.2       1    LIG27    0.0000
      6 C6         14.4260   -5.3750    1.6130 C.2       1    LIG27    0.0000
      7 N1         15.0870   -6.4370    2.1300 N.2       1    LIG27    0.0000
      8 C7         15.7360   -6.4120    3.3220 C.2       1    LIG27    0.0000
      9 C8         15.7190   -5.2180    4.0680 C.2       1    LIG27    0.0000
     10 C9         15.0380   -4.0830    3.5810 C.2       1    LIG27    0.0000
     11 C10        12.3580   -2.0520   -0.0840 C.2       1    LIG27    0.0000
     12 C11        15.0350   -2.9470    4.3640 C.2       1    LIG27    0.0000
     13 O1         16.0670   -2.5100    4.8480 O.2       1    LIG27    0.0000
     14 O2         13.9070   -2.3250    4.6590 O.3       1    LIG27    0.0000
     15 C12        16.3980   -7.5710    3.7730 C.2       1    LIG27    0.0000
     16 N2         16.3420   -8.7030    3.0340 N.am      1    LIG27    0.0000
     17 O3         17.0510   -7.5670    4.8420 O.2       1    LIG27    0.0000
     18 C13        16.9810   -9.9250    3.3940 C.3       1    LIG27    0.0000
     19 C14        16.9510  -10.8190    2.2620 C.2       1    LIG27    0.0000
     20 C15        16.2810  -10.5710    4.6170 C.3       1    LIG27    0.0000
     21 C16        16.9550  -11.8030    5.0770 C.2       1    LIG27    0.0000
     22 O4         18.0490  -11.5140    1.9710 O.3       1    LIG27    0.0000
     23 O5         15.8930  -11.0330    1.6860 O.2       1    LIG27    0.0000
     24 C17        17.9960  -12.5340    0.9730 C.3       1    LIG27    0.0000
     25 C18        18.2570  -11.7400    5.6130 C.2       1    LIG27    0.0000
     26 C19        18.9090  -12.9100    6.0400 C.2       1    LIG27    0.0000
     27 C20        18.2630  -14.1530    5.9370 C.2       1    LIG27    0.0000
     28 C21        16.9630  -14.2240    5.4080 C.2       1    LIG27    0.0000
     29 C22        16.3120  -13.0540    4.9810 C.2       1    LIG27    0.0000
     30 O6         18.8950  -15.2740    6.3490 O.3       1    LIG27    0.0000
     31 C23        12.3560   -1.8280   -1.4820 C.2       1    LIG27    0.0000
     32 C24        11.6760   -0.7350   -2.0430 C.2       1    LIG27    0.0000
     33 C25        10.9810    0.1610   -1.2160 C.2       1    LIG27    0.0000
     34 C26        10.9660   -0.0380    0.1760 C.2       1    LIG27    0.0000
     35 C27        11.6500   -1.1350    0.7320 C.2       1    LIG27    0.0000
     36 Cl1        10.1270    1.0380    1.1760 Cl        1    LIG27    0.0000
     37 H1         12.6530   -4.5300   -1.0910 H         1    LIG27    0.0000
     38 H2         13.8290   -6.3860   -0.1390 H         1    LIG27    0.0000
     39 H3         13.6810   -2.1630    2.2300 H         1    LIG27    0.0000
     40 H4         16.1970   -5.1750    4.9710 H         1    LIG27    0.0000
     41 H5         14.0300   -1.5470    5.2400 H         1    LIG27    0.0000
     42 H6         15.8530   -8.6730    2.1960 H         1    LIG27    0.0000
     43 H7         18.0250   -9.7120    3.6370 H         1    LIG27    0.0000
     44 H8         16.2690   -9.8610    5.4450 H         1    LIG27    0.0000
     45 H9         15.2440  -10.7830    4.3470 H         1    LIG27    0.0000
     46 H10        18.9820  -12.9850    0.8710 H         1    LIG27    0.0000
     47 H11        17.2800  -13.3030    1.2660 H         1    LIG27    0.0000
     48 H12        17.6980  -12.1050    0.0150 H         1    LIG27    0.0000
     49 H13        18.7340  -10.8410    5.6910 H         1    LIG27    0.0000
     50 H14        19.8530  -12.8550    6.4240 H         1    LIG27    0.0000
     51 H15        16.4900  -15.1250    5.3310 H         1    LIG27    0.0000
     52 H16        15.3700  -13.1160    4.5930 H         1    LIG27    0.0000
     53 H17        18.3730  -16.0970    6.2500 H         1    LIG27    0.0000
     54 H18        12.8630   -2.4560   -2.1080 H         1    LIG27    0.0000
     55 H19        11.6890   -0.5900   -3.0520 H         1    LIG27    0.0000
     56 H20        10.4900    0.9530   -1.6340 H         1    LIG27    0.0000
     57 H21        11.6210   -1.2730    1.7440 H         1    LIG27    0.0000
@<TRIPOS>BOND
     1    1    2 2
     2    1    4 1
     3    1   11 1
     4    2    3 1
     5    2   37 1
     6    3    6 2
     7    3   38 1
     8    4    5 2
     9    4   39 1
    10    5    6 1
    11    5   10 1
    12    6    7 1
    13    7    8 2
    14    8    9 1
    15    8   15 1
    16    9   10 2
    17    9   40 1
    18   10   12 1
    19   11   31 2
    20   11   35 1
    21   12   13 2
    22   12   14 1
    23   14   41 1
    24   15   16 1
    25   15   17 2
    26   18   16 1
    27   16   42 1
    28   18   19 1
    29   18   20 1
    30   18   43 1
    31   19   22 1
    32   19   23 2
    33   20   21 1
    34   20   44 1
    35   20   45 1
    36   21   25 2
    37   21   29 1
    38   22   24 1
    39   24   46 1
    40   24   47 1
    41   24   48 1
    42   25   26 1
    43   25   49 1
    44   26   27 2
    45   26   50 1
    46   27   28 1
    47   27   30 1
    48   28   29 2
    49   28   51 1
    50   29   52 1
    51   30   53 1
    52   31   32 1
    53   31   54 1
    54   32   33 2
    55   32   55 1
    56   33   34 1
    57   33   56 1
    58   34   35 2
    59   34   36 1
    60   35   57 1
@<TRIPOS>SUBSTRUCTURE
     1    LIG27    1   GROUP 1   LIG 1
@<TRIPOS>MOLECULE
50519895
   49    52    1     0     0
SMALL
USER_CHARGES


@<TRIPOS>ATOM
      1 N1          2.0310    3.2770    0.6600 N.am      1    LIG28    0.0000
      2 C1          1.6400    2.0730    0.1810 C.2       1    LIG28    0.0000
      3 C2          2.2870    1.0080    0.8180 C.2       1    LIG28    0.0000
      4 S1          3.4060    1.5440    2.0300 S.3       1    LIG28    0.0000
      5 C3          2.9530    3.1640    1.6370 C.2       1    LIG28    0.0000
      6 C4          0.6470    1.9180   -0.8980 C.3       1    LIG28    0.0000
      7 O1          3.4630    4.1400    2.2290 O.2       1    LIG28    0.0000
      8 C5          2.1030   -0.3730    0.5740 C.2       1    LIG28    0.0000
      9 C6          2.8320   -1.3300    1.3050 C.2       1    LIG28    0.0000
     10 C7          2.6000   -2.6860    1.0390 C.2       1    LIG28    0.0000
     11 N2          1.6940   -3.0490    0.1020 N.2       1    LIG28    0.0000
     12 C8          0.9970   -2.1310   -0.6060 C.2       1    LIG28    0.0000
     13 N3          1.2170   -0.8150   -0.3540 N.2       1    LIG28    0.0000
     14 N4          0.1010   -2.5730   -1.5180 N.pl3     1    LIG28    0.0000
     15 C9         -0.6730   -1.7840   -2.3020 C.2       1    LIG28    0.0000
     16 C10        -2.8960   -1.2270   -3.1410 C.2       1    LIG28    0.0000
     17 C11        -2.0610   -2.0180   -2.3330 C.2       1    LIG28    0.0000
     18 C12        -0.1270   -0.7690   -3.1140 C.2       1    LIG28    0.0000
     19 C13        -0.9620    0.0220   -3.9210 C.2       1    LIG28    0.0000
     20 C14        -2.3530   -0.1990   -3.9360 C.2       1    LIG28    0.0000
     21 C15         1.5320    4.5300    0.1910 C.3       1    LIG28    0.0000
     22 N5         -3.1620    0.5670   -4.7160 N.pl3     1    LIG28    0.0000
     23 C16        -3.6220    0.6490   -7.0830 C.3       1    LIG28    0.0000
     24 C17        -3.9750   -0.0060   -5.7380 C.3       1    LIG28    0.0000
     25 C18        -3.2070    1.9870   -4.5820 C.3       1    LIG28    0.0000
     26 C19        -2.8570    2.6300   -5.9340 C.3       1    LIG28    0.0000
     27 N6         -3.7390    2.1140   -6.9940 N.3       1    LIG28    0.0000
     28 H1         -0.1950    1.3230   -0.5430 H         1    LIG28    0.0000
     29 H2          0.2690    2.8820   -1.2330 H         1    LIG28    0.0000
     30 H3          1.1130    1.4190   -1.7480 H         1    LIG28    0.0000
     31 H4          3.5140   -1.0600    2.0150 H         1    LIG28    0.0000
     32 H5          3.1120   -3.4020    1.5550 H         1    LIG28    0.0000
     33 H6         -0.0300   -3.5310   -1.5800 H         1    LIG28    0.0000
     34 H7         -3.9020   -1.4010   -3.1470 H         1    LIG28    0.0000
     35 H8         -2.4680   -2.7590   -1.7610 H         1    LIG28    0.0000
     36 H9          0.8790   -0.6010   -3.1160 H         1    LIG28    0.0000
     37 H10        -0.5550    0.7570   -4.4990 H         1    LIG28    0.0000
     38 H11         1.9800    5.3690    0.7270 H         1    LIG28    0.0000
     39 H12         1.7580    4.6410   -0.8700 H         1    LIG28    0.0000
     40 H13         0.4510    4.5710    0.3340 H         1    LIG28    0.0000
     41 H14        -2.6020    0.3790   -7.3620 H         1    LIG28    0.0000
     42 H15        -4.3050    0.2820   -7.8490 H         1    LIG28    0.0000
     43 H16        -5.0250    0.1870   -5.5100 H         1    LIG28    0.0000
     44 H17        -3.8290   -1.0850   -5.8220 H         1    LIG28    0.0000
     45 H18        -4.2180    2.2850   -4.2990 H         1    LIG28    0.0000
     46 H19        -2.5130    2.3520   -3.8220 H         1    LIG28    0.0000
     47 H20        -2.9830    3.7100   -5.8600 H         1    LIG28    0.0000
     48 H21        -1.8170    2.4120   -6.1840 H         1    LIG28    0.0000
     49 H22        -4.6990    2.3170   -6.7070 H         1    LIG28    0.0000
@<TRIPOS>BOND
     1    1    2 1
     2    1    5 1
     3    1   21 1
     4    2    3 2
     5    2    6 1
     6    3    4 1
     7    3    8 1
     8    4    5 1
     9    5    7 2
    10    6   28 1
    11    6   29 1
    12    6   30 1
    13    8    9 2
    14    8   13 1
    15    9   10 1
    16    9   31 1
    17   10   11 2
    18   10   32 1
    19   11   12 1
    20   12   13 2
    21   12   14 1
    22   14   15 1
    23   14   33 1
    24   15   17 2
    25   15   18 1
    26   16   17 1
    27   16   20 2
    28   16   34 1
    29   17   35 1
    30   18   19 2
    31   18   36 1
    32   19   20 1
    33   19   37 1
    34   20   22 1
    35   21   38 1
    36   21   39 1
    37   21   40 1
    38   22   24 1
    39   22   25 1
    40   23   24 1
    41   23   27 1
    42   23   41 1
    43   23   42 1
    44   24   43 1
    45   24   44 1
    46   25   26 1
    47   25   45 1
    48   25   46 1
    49   26   27 1
    50   26   47 1
    51   26   48 1
    52   27   49 1
@<TRIPOS>SUBSTRUCTURE
     1    LIG28    1   GROUP 1   LIG 1
@<TRIPOS>MOLECULE
153791
   49    52    1     0     0
SMALL
USER_CHARGES


@<TRIPOS>ATOM
      1 N1          2.0310    3.2770    0.6600 N.am      1    LIG29    0.0000
      2 C1          1.6400    2.0730    0.1810 C.2       1    LIG29    0.0000
      3 C2          2.2870    1.0080    0.8180 C.2       1    LIG29    0.0000
      4 S1          3.4060    1.5440    2.0300 S.3       1    LIG29    0.0000
      5 C3          2.9530    3.1640    1.6370 C.2       1    LIG29    0.0000
      6 C4          0.6470    1.9180   -0.8980 C.3       1    LIG29    0.0000
      7 O1          3.4630    4.1400    2.2290 O.2       1    LIG29    0.0000
      8 C5          2.1030   -0.3730    0.5740 C.2       1    LIG29    0.0000
      9 C6          2.8320   -1.3300    1.3050 C.2       1    LIG29    0.0000
     10 C7          2.6000   -2.6860    1.0390 C.2       1    LIG29    0.0000
     11 N2          1.6940   -3.0490    0.1020 N.2       1    LIG29    0.0000
     12 C8          0.9970   -2.1310   -0.6060 C.2       1    LIG29    0.0000
     13 N3          1.2170   -0.8150   -0.3540 N.2       1    LIG29    0.0000
     14 N4          0.1010   -2.5730   -1.5180 N.pl3     1    LIG29    0.0000
     15 C9         -0.6730   -1.7840   -2.3020 C.2       1    LIG29    0.0000
     16 C10        -2.8960   -1.2270   -3.1410 C.2       1    LIG29    0.0000
     17 C11        -2.0610   -2.0180   -2.3330 C.2       1    LIG29    0.0000
     18 C12        -0.1270   -0.7690   -3.1140 C.2       1    LIG29    0.0000
     19 C13        -0.9620    0.0220   -3.9210 C.2       1    LIG29    0.0000
     20 C14        -2.3530   -0.1990   -3.9360 C.2       1    LIG29    0.0000
     21 C15         1.5320    4.5300    0.1910 C.3       1    LIG29    0.0000
     22 N5         -3.1620    0.5670   -4.7160 N.pl3     1    LIG29    0.0000
     23 C16        -3.6220    0.6490   -7.0830 C.3       1    LIG29    0.0000
     24 C17        -3.9750   -0.0060   -5.7380 C.3       1    LIG29    0.0000
     25 C18        -3.2070    1.9870   -4.5820 C.3       1    LIG29    0.0000
     26 C19        -2.8570    2.6300   -5.9340 C.3       1    LIG29    0.0000
     27 N6         -3.7390    2.1140   -6.9940 N.3       1    LIG29    0.0000
     28 H1         -0.1950    1.3230   -0.5430 H         1    LIG29    0.0000
     29 H2          0.2690    2.8820   -1.2330 H         1    LIG29    0.0000
     30 H3          1.1130    1.4190   -1.7480 H         1    LIG29    0.0000
     31 H4          3.5140   -1.0600    2.0150 H         1    LIG29    0.0000
     32 H5          3.1120   -3.4020    1.5550 H         1    LIG29    0.0000
     33 H6         -0.0300   -3.5310   -1.5800 H         1    LIG29    0.0000
     34 H7         -3.9020   -1.4010   -3.1470 H         1    LIG29    0.0000
     35 H8         -2.4680   -2.7590   -1.7610 H         1    LIG29    0.0000
     36 H9          0.8790   -0.6010   -3.1160 H         1    LIG29    0.0000
     37 H10        -0.5550    0.7570   -4.4990 H         1    LIG29    0.0000
     38 H11         1.9800    5.3690    0.7270 H         1    LIG29    0.0000
     39 H12         1.7580    4.6410   -0.8700 H         1    LIG29    0.0000
     40 H13         0.4510    4.5710    0.3340 H         1    LIG29    0.0000
     41 H14        -2.6020    0.3790   -7.3620 H         1    LIG29    0.0000
     42 H15        -4.3050    0.2820   -7.8490 H         1    LIG29    0.0000
     43 H16        -5.0250    0.1870   -5.5100 H         1    LIG29    0.0000
     44 H17        -3.8290   -1.0850   -5.8220 H         1    LIG29    0.0000
     45 H18        -4.2180    2.2850   -4.2990 H         1    LIG29    0.0000
     46 H19        -2.5130    2.3520   -3.8220 H         1    LIG29    0.0000
     47 H20        -2.9830    3.7100   -5.8600 H         1    LIG29    0.0000
     48 H21        -1.8170    2.4120   -6.1840 H         1    LIG29    0.0000
     49 H22        -4.6990    2.3170   -6.7070 H         1    LIG29    0.0000
@<TRIPOS>BOND
     1    1    2 1
     2    1    5 1
     3    1   21 1
     4    2    3 2
     5    2    6 1
     6    3    4 1
     7    3    8 1
     8    4    5 1
     9    5    7 2
    10    6   28 1
    11    6   29 1
    12    6   30 1
    13    8    9 2
    14    8   13 1
    15    9   10 1
    16    9   31 1
    17   10   11 2
    18   10   32 1
    19   11   12 1
    20   12   13 2
    21   12   14 1
    22   14   15 1
    23   14   33 1
    24   15   17 2
    25   15   18 1
    26   16   17 1
    27   16   20 2
    28   16   34 1
    29   17   35 1
    30   18   19 2
    31   18   36 1
    32   19   20 1
    33   19   37 1
    34   20   22 1
    35   21   38 1
    36   21   39 1
    37   21   40 1
    38   22   24 1
    39   22   25 1
    40   23   24 1
    41   23   27 1
    42   23   41 1
    43   23   42 1
    44   24   43 1
    45   24   44 1
    46   25   26 1
    47   25   45 1
    48   25   46 1
    49   26   27 1
    50   26   47 1
    51   26   48 1
    52   27   49 1
@<TRIPOS>SUBSTRUCTURE
     1    LIG29    1   GROUP 1   LIG 1
@<TRIPOS>MOLECULE
50579843
   52    55    1     0     0
SMALL
USER_CHARGES


@<TRIPOS>ATOM
      1 C1         12.4410  -17.2360    0.5070 C.2       1    LIG30    0.0000
      2 C2         12.5370  -18.6350    0.4960 C.2       1    LIG30    0.0000
      3 N1         13.7490  -19.2360    0.4410 N.2       1    LIG30    0.0000
      4 C3         14.8940  -18.5170    0.3930 C.2       1    LIG30    0.0000
      5 N2         14.8090  -17.1640    0.4050 N.2       1    LIG30    0.0000
      6 C4         13.6340  -16.4910    0.4610 C.2       1    LIG30    0.0000
      7 N3         16.0840  -19.1580    0.3400 N.pl3     1    LIG30    0.0000
      8 C5         17.2670  -18.5050    0.2860 C.2       1    LIG30    0.0000
      9 C6         18.0120  -18.2990    1.4620 C.2       1    LIG30    0.0000
     10 C7         19.2120  -17.5690    1.4170 C.2       1    LIG30    0.0000
     11 C8         19.6810  -17.0450    0.1960 C.2       1    LIG30    0.0000
     12 C9         18.9430  -17.2700   -0.9820 C.2       1    LIG30    0.0000
     13 C10        17.7420  -17.9980   -0.9390 C.2       1    LIG30    0.0000
     14 C11        13.6180  -15.0810    0.4760 C.2       1    LIG30    0.0000
     15 S1         12.1290  -14.1960    0.5450 S.3       1    LIG30    0.0000
     16 C12        13.0740  -12.7470    0.5350 C.2       1    LIG30    0.0000
     17 N4         14.3990  -12.9370    0.4800 N.2       1    LIG30    0.0000
     18 C13        14.7310  -14.2340    0.4450 C.2       1    LIG30    0.0000
     19 C14        16.1400  -14.6450    0.3820 C.3       1    LIG30    0.0000
     20 N5         12.4990  -11.5300    0.5830 N.pl3     1    LIG30    0.0000
     21 N6         20.8230  -16.3120    0.1590 N.pl3     1    LIG30    0.0000
     22 C15        21.9440  -16.7070   -0.6330 C.3       1    LIG30    0.0000
     23 C16        22.2680  -15.5840   -1.6300 C.3       1    LIG30    0.0000
     24 O1         22.3950  -14.3470   -0.9290 O.3       1    LIG30    0.0000
     25 C17        21.2650  -13.9620   -0.1450 C.3       1    LIG30    0.0000
     26 C18        20.9340  -15.0750    0.8620 C.3       1    LIG30    0.0000
     27 C19        13.2550  -10.3310    0.5880 C.3       1    LIG30    0.0000
     28 C20        12.3090   -9.1280    0.6610 C.3       1    LIG30    0.0000
     29 H1         11.5270  -16.7850    0.5500 H         1    LIG30    0.0000
     30 H2         11.6900  -19.2040    0.5290 H         1    LIG30    0.0000
     31 H3         16.0870  -20.1270    0.3550 H         1    LIG30    0.0000
     32 H4         17.6730  -18.6620    2.3530 H         1    LIG30    0.0000
     33 H5         19.7390  -17.4120    2.2760 H         1    LIG30    0.0000
     34 H6         19.2730  -16.8930   -1.8710 H         1    LIG30    0.0000
     35 H7         17.2070  -18.1420   -1.7960 H         1    LIG30    0.0000
     36 H8         16.7840  -13.7660    0.3750 H         1    LIG30    0.0000
     37 H9         16.3870  -15.2560    1.2510 H         1    LIG30    0.0000
     38 H10        16.3170  -15.2200   -0.5280 H         1    LIG30    0.0000
     39 H11        11.5320  -11.4750    0.6200 H         1    LIG30    0.0000
     40 H12        21.7570  -17.6330   -1.1810 H         1    LIG30    0.0000
     41 H13        22.8040  -16.8580    0.0220 H         1    LIG30    0.0000
     42 H14        23.2020  -15.8090   -2.1430 H         1    LIG30    0.0000
     43 H15        21.4650  -15.5070   -2.3650 H         1    LIG30    0.0000
     44 H16        20.4070  -13.7960   -0.7980 H         1    LIG30    0.0000
     45 H17        21.4910  -13.0400    0.3910 H         1    LIG30    0.0000
     46 H18        20.0120  -14.8150    1.3870 H         1    LIG30    0.0000
     47 H19        21.7430  -15.1490    1.5900 H         1    LIG30    0.0000
     48 H20        13.9190  -10.3140    1.4540 H         1    LIG30    0.0000
     49 H21        13.8510  -10.2620   -0.3240 H         1    LIG30    0.0000
     50 H22        12.8930   -8.2080    0.6660 H         1    LIG30    0.0000
     51 H23        11.6460   -9.1270   -0.2050 H         1    LIG30    0.0000
     52 H24        11.7150   -9.1810    1.5730 H         1    LIG30    0.0000
@<TRIPOS>BOND
     1    1    2 2
     2    1    6 1
     3    1   29 1
     4    2    3 1
     5    2   30 1
     6    3    4 2
     7    4    5 1
     8    4    7 1
     9    5    6 2
    10    6   14 1
    11    7    8 1
    12    7   31 1
    13    8    9 2
    14    8   13 1
    15    9   10 1
    16    9   32 1
    17   10   11 2
    18   10   33 1
    19   11   12 1
    20   11   21 1
    21   12   13 2
    22   12   34 1
    23   13   35 1
    24   14   15 1
    25   14   18 2
    26   15   16 1
    27   16   17 2
    28   16   20 1
    29   17   18 1
    30   18   19 1
    31   19   36 1
    32   19   37 1
    33   19   38 1
    34   20   27 1
    35   20   39 1
    36   21   22 1
    37   21   26 1
    38   22   23 1
    39   22   40 1
    40   22   41 1
    41   23   24 1
    42   23   42 1
    43   23   43 1
    44   24   25 1
    45   25   26 1
    46   25   44 1
    47   25   45 1
    48   26   46 1
    49   26   47 1
    50   27   28 1
    51   27   48 1
    52   27   49 1
    53   28   50 1
    54   28   51 1
    55   28   52 1
@<TRIPOS>SUBSTRUCTURE
     1    LIG30    1   GROUP 1   LIG 1
@<TRIPOS>MOLECULE
50579844
   49    52    1     0     0
SMALL
USER_CHARGES


@<TRIPOS>ATOM
      1 C1          3.4670  -17.1450    0.6750 C.2       1    LIG31    0.0000
      2 C2          3.6910  -18.5250    0.7710 C.2       1    LIG31    0.0000
      3 N1          4.9530  -19.0110    0.7320 N.2       1    LIG31    0.0000
      4 C3          6.0260  -18.1990    0.5940 C.2       1    LIG31    0.0000
      5 N2          5.8190  -16.8610    0.5010 N.2       1    LIG31    0.0000
      6 C4          4.5830  -16.2990    0.5380 C.2       1    LIG31    0.0000
      7 N3          7.2530  -18.7710    0.5760 N.pl3     1    LIG31    0.0000
      8 C5          8.4330  -18.1150    0.4520 C.2       1    LIG31    0.0000
      9 C6          8.6690  -17.1730   -0.5710 C.2       1    LIG31    0.0000
     10 C7          9.9160  -16.5340   -0.6740 C.2       1    LIG31    0.0000
     11 C8         10.9490  -16.8370    0.2340 C.2       1    LIG31    0.0000
     12 C9         10.7180  -17.7900    1.2460 C.2       1    LIG31    0.0000
     13 C10         9.4700  -18.4280    1.3490 C.2       1    LIG31    0.0000
     14 C11         4.4100  -14.9000    0.4530 C.2       1    LIG31    0.0000
     15 S1          2.8320  -14.1860    0.5150 S.3       1    LIG31    0.0000
     16 C12         3.6030  -12.6420    0.3740 C.2       1    LIG31    0.0000
     17 N4          4.9370  -12.6830    0.2850 N.2       1    LIG31    0.0000
     18 C13         5.4150  -13.9340    0.3260 C.2       1    LIG31    0.0000
     19 C14         6.8570  -14.1880    0.2350 C.3       1    LIG31    0.0000
     20 N5          2.9300  -11.4790    0.3510 N.pl3     1    LIG31    0.0000
     21 N6         12.1550  -16.2170    0.1330 N.pl3     1    LIG31    0.0000
     22 C15        13.3710  -16.9540   -0.0090 C.3       1    LIG31    0.0000
     23 C16        14.3180  -16.5780    1.1400 C.3       1    LIG31    0.0000
     24 O1         14.4510  -15.1580    1.2010 O.3       1    LIG31    0.0000
     25 C17        13.2320  -14.4290    1.3430 C.3       1    LIG31    0.0000
     26 C18        12.2730  -14.7950    0.1990 C.3       1    LIG31    0.0000
     27 C19         1.5170  -11.4240    0.4390 C.3       1    LIG31    0.0000
     28 H1          2.5140  -16.7800    0.7080 H         1    LIG31    0.0000
     29 H2          2.9020  -19.1640    0.8750 H         1    LIG31    0.0000
     30 H3          7.2900  -19.7300    0.7110 H         1    LIG31    0.0000
     31 H4          7.9340  -16.9530   -1.2440 H         1    LIG31    0.0000
     32 H5         10.0720  -15.8500   -1.4150 H         1    LIG31    0.0000
     33 H6         11.4590  -18.0190    1.9090 H         1    LIG31    0.0000
     34 H7          9.3190  -19.1190    2.0860 H         1    LIG31    0.0000
     35 H8          7.3960  -13.2430    0.1570 H         1    LIG31    0.0000
     36 H9          7.1990  -14.7180    1.1240 H         1    LIG31    0.0000
     37 H10         7.0650  -14.7860   -0.6520 H         1    LIG31    0.0000
     38 H11         3.4310  -10.6520    0.2700 H         1    LIG31    0.0000
     39 H12        13.8400  -16.6810   -0.9550 H         1    LIG31    0.0000
     40 H13        13.2050  -18.0330   -0.0020 H         1    LIG31    0.0000
     41 H14        13.9130  -16.9490    2.0830 H         1    LIG31    0.0000
     42 H15        15.2960  -17.0280    0.9700 H         1    LIG31    0.0000
     43 H16        13.4430  -13.3600    1.3130 H         1    LIG31    0.0000
     44 H17        12.7680  -14.6760    2.2990 H         1    LIG31    0.0000
     45 H18        12.6860  -14.4290   -0.7420 H         1    LIG31    0.0000
     46 H19        11.3110  -14.3090    0.3740 H         1    LIG31    0.0000
     47 H20         1.1980  -10.3820    0.4000 H         1    LIG31    0.0000
     48 H21         1.0670  -11.9640   -0.3960 H         1    LIG31    0.0000
     49 H22         1.1820  -11.8640    1.3800 H         1    LIG31    0.0000
@<TRIPOS>BOND
     1    1    2 2
     2    1    6 1
     3    1   28 1
     4    2    3 1
     5    2   29 1
     6    3    4 2
     7    4    5 1
     8    4    7 1
     9    5    6 2
    10    6   14 1
    11    7    8 1
    12    7   30 1
    13    8    9 1
    14    8   13 2
    15    9   10 2
    16    9   31 1
    17   10   11 1
    18   10   32 1
    19   11   12 2
    20   11   21 1
    21   12   13 1
    22   12   33 1
    23   13   34 1
    24   14   15 1
    25   14   18 2
    26   15   16 1
    27   16   17 2
    28   16   20 1
    29   17   18 1
    30   18   19 1
    31   19   35 1
    32   19   36 1
    33   19   37 1
    34   20   27 1
    35   20   38 1
    36   21   22 1
    37   21   26 1
    38   22   23 1
    39   22   39 1
    40   22   40 1
    41   23   24 1
    42   23   41 1
    43   23   42 1
    44   24   25 1
    45   25   26 1
    46   25   43 1
    47   25   44 1
    48   26   45 1
    49   26   46 1
    50   27   47 1
    51   27   48 1
    52   27   49 1
@<TRIPOS>SUBSTRUCTURE
     1    LIG31    1   GROUP 1   LIG 1
@<TRIPOS>MOLECULE
50077177
   65    68    1     0     0
SMALL
USER_CHARGES


@<TRIPOS>ATOM
      1 C1          8.5370  -11.4150    0.6620 C.2       1    LIG32    0.0000
      2 C2          9.0310  -12.4710   -0.1300 C.2       1    LIG32    0.0000
      3 C3         10.1380  -13.2250    0.2920 C.2       1    LIG32    0.0000
      4 C4          9.1900  -11.1100    1.8780 C.2       1    LIG32    0.0000
      5 C5         10.3130  -11.8500    2.3160 C.2       1    LIG32    0.0000
      6 C6         10.7710  -12.9220    1.5070 C.2       1    LIG32    0.0000
      7 N1         11.8280  -13.6690    1.9060 N.2       1    LIG32    0.0000
      8 C7         12.5050  -13.4590    3.0640 C.2       1    LIG32    0.0000
      9 C8         12.0930  -12.4010    3.8970 C.2       1    LIG32    0.0000
     10 C9         11.0020  -11.5870    3.5290 C.2       1    LIG32    0.0000
     11 C10         7.4430  -10.6980    0.2140 C.2       1    LIG32    0.0000
     12 C11        10.6540  -10.5530    4.3730 C.2       1    LIG32    0.0000
     13 O1         10.5140  -10.7360    5.5720 O.2       1    LIG32    0.0000
     14 O2         10.5170   -9.3200    3.9190 O.3       1    LIG32    0.0000
     15 C12        13.5850  -14.3000    3.3940 C.2       1    LIG32    0.0000
     16 N2         13.9360  -15.2940    2.5450 N.am      1    LIG32    0.0000
     17 O3         14.2160  -14.1500    4.4660 O.2       1    LIG32    0.0000
     18 C13        14.9840  -16.2320    2.7820 C.3       1    LIG32    0.0000
     19 C14        15.9660  -16.1250    1.6810 C.2       1    LIG32    0.0000
     20 C15        14.3950  -17.6620    2.8410 C.3       1    LIG32    0.0000
     21 C16        13.4270  -17.8310    3.9460 C.2       1    LIG32    0.0000
     22 C17        13.8560  -17.7430    5.2860 C.2       1    LIG32    0.0000
     23 C18        12.9380  -17.8930    6.3400 C.2       1    LIG32    0.0000
     24 C19        11.5820  -18.1340    6.0620 C.2       1    LIG32    0.0000
     25 C20        11.1460  -18.2270    4.7290 C.2       1    LIG32    0.0000
     26 C21        12.0650  -18.0770    3.6770 C.2       1    LIG32    0.0000
     27 C22         6.4950  -10.2000    1.0240 C.2       1    LIG32    0.0000
     28 O4         10.7030  -18.2760    7.0800 O.3       1    LIG32    0.0000
     29 C23         5.3880   -9.5000    0.5780 C.2       1    LIG32    0.0000
     30 C24         5.4350   -8.6510   -0.5500 C.2       1    LIG32    0.0000
     31 C25         4.2920   -7.9470   -0.9660 C.2       1    LIG32    0.0000
     32 C26         3.0840   -8.0780   -0.2560 C.2       1    LIG32    0.0000
     33 C27         3.0290   -8.9140    0.8740 C.2       1    LIG32    0.0000
     34 C28         4.1740   -9.6160    1.2880 C.2       1    LIG32    0.0000
     35 Cl1         1.7070   -7.2330   -0.7560 Cl        1    LIG32    0.0000
     36 N3         17.2760  -15.7720    1.8600 N.am      1    LIG32    1.0000
     37 O5         15.5550  -16.3720    0.5220 O.2       1    LIG32    0.0000
     38 C29        17.7970  -15.4630    3.1530 C.3       1    LIG32    0.0000
     39 C30        18.1420  -15.7020    0.7260 C.3       1    LIG32    0.0000
     40 H1          8.5810  -12.7030   -1.0170 H         1    LIG32    0.0000
     41 H2         10.4780  -13.9940   -0.2870 H         1    LIG32    0.0000
     42 H3          8.8380  -10.3380    2.4450 H         1    LIG32    0.0000
     43 H4         12.5900  -12.2190    4.7720 H         1    LIG32    0.0000
     44 H5          7.3460  -10.5760   -0.7670 H         1    LIG32    0.0000
     45 H6         10.2970   -8.6690    4.6170 H         1    LIG32    0.0000
     46 H7         13.4330  -15.3770    1.7190 H         1    LIG32    0.0000
     47 H8         15.4730  -16.0310    3.7340 H         1    LIG32    0.0000
     48 H9         13.9130  -17.8830    1.8850 H         1    LIG32    0.0000
     49 H10        15.2070  -18.3790    2.9800 H         1    LIG32    0.0000
     50 H11        14.8380  -17.5650    5.4970 H         1    LIG32    0.0000
     51 H12        13.2570  -17.8240    7.3060 H         1    LIG32    0.0000
     52 H13        10.1620  -18.4020    4.5230 H         1    LIG32    0.0000
     53 H14        11.7380  -18.1420    2.7120 H         1    LIG32    0.0000
     54 H15         6.5690  -10.3650    2.0010 H         1    LIG32    0.0000
     55 H16         9.7770  -18.4340    6.8010 H         1    LIG32    0.0000
     56 H17         6.3040   -8.5340   -1.0730 H         1    LIG32    0.0000
     57 H18         4.3480   -7.3400   -1.7850 H         1    LIG32    0.0000
     58 H19         2.1610   -9.0180    1.4010 H         1    LIG32    0.0000
     59 H20         4.1170  -10.2180    2.1110 H         1    LIG32    0.0000
     60 H21        18.8520  -15.1930    3.1030 H         1    LIG32    0.0000
     61 H22        17.2490  -14.6210    3.5810 H         1    LIG32    0.0000
     62 H23        17.6980  -16.3300    3.8090 H         1    LIG32    0.0000
     63 H24        19.1540  -15.4110    1.0120 H         1    LIG32    0.0000
     64 H25        18.1900  -16.6770    0.2380 H         1    LIG32    0.0000
     65 H26        17.7610  -14.9670    0.0150 H         1    LIG32    0.0000
@<TRIPOS>BOND
     1    1    2 2
     2    1    4 1
     3    1   11 1
     4    2    3 1
     5    2   40 1
     6    3    6 2
     7    3   41 1
     8    4    5 2
     9    4   42 1
    10    5    6 1
    11    5   10 1
    12    6    7 1
    13    7    8 2
    14    8    9 1
    15    8   15 1
    16    9   10 2
    17    9   43 1
    18   10   12 1
    19   11   27 2
    20   11   44 1
    21   12   13 2
    22   12   14 1
    23   14   45 1
    24   15   16 1
    25   15   17 2
    26   18   16 1
    27   16   46 1
    28   18   19 1
    29   18   20 1
    30   18   47 1
    31   19   36 1
    32   19   37 2
    33   20   21 1
    34   20   48 1
    35   20   49 1
    36   21   22 2
    37   21   26 1
    38   22   23 1
    39   22   50 1
    40   23   24 2
    41   23   51 1
    42   24   25 1
    43   24   28 1
    44   25   26 2
    45   25   52 1
    46   26   53 1
    47   27   29 1
    48   27   54 1
    49   28   55 1
    50   29   30 2
    51   29   34 1
    52   30   31 1
    53   30   56 1
    54   31   32 2
    55   31   57 1
    56   32   33 1
    57   32   35 1
    58   33   34 2
    59   33   58 1
    60   34   59 1
    61   36   38 1
    62   36   39 1
    63   38   60 1
    64   38   61 1
    65   38   62 1
    66   39   63 1
    67   39   64 1
    68   39   65 1
@<TRIPOS>SUBSTRUCTURE
     1    LIG32    1   GROUP 1   LIG 1
@<TRIPOS>MOLECULE
50579850
   36    38    1     0     0
SMALL
USER_CHARGES


@<TRIPOS>ATOM
      1 C1         -4.6690   -4.9250    0.6070 C.2       1    LIG33    0.0000
      2 C2         -4.5480   -6.3220    0.6240 C.2       1    LIG33    0.0000
      3 N1         -3.3260   -6.9000    0.5410 N.2       1    LIG33    0.0000
      4 C3         -2.1970   -6.1610    0.4390 C.2       1    LIG33    0.0000
      5 N2         -2.3070   -4.8100    0.4220 N.2       1    LIG33    0.0000
      6 C4         -3.4940   -4.1590    0.5020 C.2       1    LIG33    0.0000
      7 N3         -1.0030   -6.7910    0.3610 N.pl3     1    LIG33    0.0000
      8 C5          0.1750   -6.1370    0.2530 C.2       1    LIG33    0.0000
      9 C6          0.6690   -5.7720   -1.0140 C.2       1    LIG33    0.0000
     10 C7          1.8870   -5.0790   -1.1240 C.2       1    LIG33    0.0000
     11 C8          2.6180   -4.7510    0.0320 C.2       1    LIG33    0.0000
     12 C9          2.1290   -5.1200    1.2990 C.2       1    LIG33    0.0000
     13 C10         0.9110   -5.8140    1.4090 C.2       1    LIG33    0.0000
     14 C11        -3.5430   -2.7500    0.4820 C.2       1    LIG33    0.0000
     15 S1         -5.0480   -1.8980    0.5890 S.3       1    LIG33    0.0000
     16 C12        -4.1390   -0.4290    0.4920 C.2       1    LIG33    0.0000
     17 N4         -2.8140   -0.5880    0.3880 N.2       1    LIG33    0.0000
     18 C13        -2.4520   -1.8780    0.3800 C.2       1    LIG33    0.0000
     19 C14        -1.0390   -2.2610    0.2730 C.3       1    LIG33    0.0000
     20 C15        -4.7780    0.8850    0.5230 C.3       1    LIG33    0.0000
     21 N5          3.7800   -4.0870   -0.0730 N.pl3     1    LIG33    0.0000
     22 H1         -5.5900   -4.4910    0.6710 H         1    LIG33    0.0000
     23 H2         -5.3810   -6.9050    0.6990 H         1    LIG33    0.0000
     24 H3         -0.9930   -7.7600    0.3850 H         1    LIG33    0.0000
     25 H4          0.1410   -6.0040   -1.8560 H         1    LIG33    0.0000
     26 H5          2.2370   -4.8150   -2.0450 H         1    LIG33    0.0000
     27 H6          2.6550   -4.8840    2.1410 H         1    LIG33    0.0000
     28 H7          0.5600   -6.0750    2.3310 H         1    LIG33    0.0000
     29 H8         -0.4160   -1.3680    0.2050 H         1    LIG33    0.0000
     30 H9         -0.7420   -2.8320    1.1540 H         1    LIG33    0.0000
     31 H10        -0.8850   -2.8660   -0.6210 H         1    LIG33    0.0000
     32 H11        -4.0250    1.6700    0.4450 H         1    LIG33    0.0000
     33 H12        -5.4740    0.9680   -0.3120 H         1    LIG33    0.0000
     34 H13        -5.3220    1.0000    1.4600 H         1    LIG33    0.0000
     35 H14         4.2810   -3.8560    0.7250 H         1    LIG33    0.0000
     36 H15         4.1210   -3.8390   -0.9460 H         1    LIG33    0.0000
@<TRIPOS>BOND
     1    1    2 1
     2    1    6 2
     3    1   22 1
     4    2    3 2
     5    2   23 1
     6    3    4 1
     7    4    5 2
     8    4    7 1
     9    5    6 1
    10    6   14 1
    11    7    8 1
    12    7   24 1
    13    8    9 1
    14    8   13 2
    15    9   10 2
    16    9   25 1
    17   10   11 1
    18   10   26 1
    19   11   12 2
    20   11   21 1
    21   12   13 1
    22   12   27 1
    23   13   28 1
    24   14   15 1
    25   14   18 2
    26   15   16 1
    27   16   17 2
    28   16   20 1
    29   17   18 1
    30   18   19 1
    31   19   29 1
    32   19   30 1
    33   19   31 1
    34   20   32 1
    35   20   33 1
    36   20   34 1
    37   21   35 1
    38   21   36 1
@<TRIPOS>SUBSTRUCTURE
     1    LIG33    1   GROUP 1   LIG 1
@<TRIPOS>MOLECULE
51041254
   48    51    1     0     0
SMALL
USER_CHARGES


@<TRIPOS>ATOM
      1 C1          0.4340    2.5550    0.5140 C.2       1    LIG34    0.0000
      2 C2          1.5840    1.8910    0.7570 C.2       1    LIG34    0.0000
      3 C3          2.5380    2.4450    1.5200 C.2       1    LIG34    0.0000
      4 C4          0.2100    3.8280    1.0290 C.2       1    LIG34    0.0000
      5 C5          1.2340    4.3940    1.8270 C.2       1    LIG34    0.0000
      6 C6          1.0980    5.6810    2.3990 C.2       1    LIG34    0.0000
      7 C7         -1.1160    5.8460    1.3620 C.2       1    LIG34    0.0000
      8 C8         -0.9690    4.5690    0.8000 C.2       1    LIG34    0.0000
      9 C9         -0.0960    6.3970    2.1520 C.2       1    LIG34    0.0000
     10 O1         -0.2820    7.6350    2.6670 O.3       1    LIG34    0.0000
     11 O2         -1.9780    4.0790    0.0440 O.3       1    LIG34    0.0000
     12 O3         -0.3980    1.9840   -0.1760 O.2       1    LIG34    0.0000
     13 O4          2.3690    3.6630    2.0480 O.3       1    LIG34    0.0000
     14 C10         3.7260    1.7990    1.7800 C.2       1    LIG34    0.0000
     15 C11         6.1190    1.6170    1.3200 C.2       1    LIG34    0.0000
     16 C12         4.8770    2.2310    1.0890 C.2       1    LIG34    0.0000
     17 C13         3.8320    0.7470    2.7230 C.2       1    LIG34    0.0000
     18 C14         5.0830    0.1370    2.9470 C.2       1    LIG34    0.0000
     19 C15         6.2210    0.5690    2.2470 C.2       1    LIG34    0.0000
     20 Cl1         2.5020    0.1930    3.6200 Cl        1    LIG34    0.0000
     21 C16         2.1660    6.2940    3.2420 C.3       1    LIG34    0.0000
     22 C17         4.3970    7.4380    3.3810 C.3       1    LIG34    0.0000
     23 C18         3.4170    6.7170    2.4390 C.3       1    LIG34    0.0000
     24 C19         2.5870    5.4220    4.4430 C.3       1    LIG34    0.0000
     25 C20         3.5960    6.1930    5.3080 C.3       1    LIG34    0.0000
     26 N1          4.7810    6.5610    4.5070 N.3       1    LIG34    0.0000
     27 C21         5.7650    7.2490    5.3620 C.3       1    LIG34    0.0000
     28 O5          4.0940    5.6130    1.8500 O.3       1    LIG34    0.0000
     29 H1          1.7170    0.9880    0.3650 H         1    LIG34    0.0000
     30 H2         -1.9710    6.3780    1.1940 H         1    LIG34    0.0000
     31 H3         -1.1420    8.0480    2.4420 H         1    LIG34    0.0000
     32 H4         -2.7500    4.6750   -0.0510 H         1    LIG34    0.0000
     33 H5          6.9470    1.9340    0.8140 H         1    LIG34    0.0000
     34 H6          4.8160    2.9960    0.4150 H         1    LIG34    0.0000
     35 H7          5.1760   -0.6230    3.6230 H         1    LIG34    0.0000
     36 H8          7.1230    0.1230    2.4160 H         1    LIG34    0.0000
     37 H9          1.7750    7.2150    3.6770 H         1    LIG34    0.0000
     38 H10         3.9280    8.3490    3.7580 H         1    LIG34    0.0000
     39 H11         5.2870    7.7120    2.8130 H         1    LIG34    0.0000
     40 H12         3.1230    7.4080    1.6480 H         1    LIG34    0.0000
     41 H13         1.7130    5.1750    5.0480 H         1    LIG34    0.0000
     42 H14         3.0630    4.5000    4.1090 H         1    LIG34    0.0000
     43 H15         3.1180    7.0880    5.7110 H         1    LIG34    0.0000
     44 H16         3.9010    5.5520    6.1370 H         1    LIG34    0.0000
     45 H17         6.0660    6.5900    6.1780 H         1    LIG34    0.0000
     46 H18         6.6480    7.5030    4.7760 H         1    LIG34    0.0000
     47 H19         5.3370    8.1620    5.7790 H         1    LIG34    0.0000
     48 H20         4.9100    5.8500    1.3640 H         1    LIG34    0.0000
@<TRIPOS>BOND
     1    1    2 1
     2    1    4 1
     3    1   12 2
     4    2    3 2
     5    2   29 1
     6    3   13 1
     7    3   14 1
     8    4    5 1
     9    4    8 2
    10    5    6 2
    11    5   13 1
    12    6    9 1
    13   21    6 1
    14    7    8 1
    15    7    9 2
    16    7   30 1
    17    8   11 1
    18    9   10 1
    19   10   31 1
    20   11   32 1
    21   14   16 2
    22   14   17 1
    23   15   16 1
    24   15   19 2
    25   15   33 1
    26   16   34 1
    27   17   18 2
    28   17   20 1
    29   18   19 1
    30   18   35 1
    31   19   36 1
    32   21   23 1
    33   21   24 1
    34   21   37 1
    35   22   23 1
    36   22   26 1
    37   22   38 1
    38   22   39 1
    39   23   28 1
    40   23   40 1
    41   24   25 1
    42   24   41 1
    43   24   42 1
    44   25   26 1
    45   25   43 1
    46   25   44 1
    47   26   27 1
    48   27   45 1
    49   27   46 1
    50   27   47 1
    51   28   48 1
@<TRIPOS>SUBSTRUCTURE
     1    LIG34    1   GROUP 1   LIG 1
@<TRIPOS>MOLECULE
51087231
   57    60    1     0     0
SMALL
USER_CHARGES


@<TRIPOS>ATOM
      1 C1         14.5730  -10.5240    0.4010 C.2       1    LIG35    0.0000
      2 C2         14.6830  -11.7360   -0.3190 C.2       1    LIG35    0.0000
      3 C3         15.1560  -12.9060    0.2940 C.2       1    LIG35    0.0000
      4 C4         14.9480  -10.5300    1.7670 C.2       1    LIG35    0.0000
      5 C5         15.4140  -11.7000    2.4120 C.2       1    LIG35    0.0000
      6 C6         15.5240  -12.8890    1.6470 C.2       1    LIG35    0.0000
      7 N1         15.9940  -14.0230    2.2190 N.2       1    LIG35    0.0000
      8 C7         16.3790  -14.1070    3.5180 C.2       1    LIG35    0.0000
      9 C8         16.2820  -12.9550    4.3210 C.2       1    LIG35    0.0000
     10 C9         15.7950  -11.7470    3.7790 C.2       1    LIG35    0.0000
     11 C10        14.1010   -9.3320   -0.2310 C.2       1    LIG35    0.0000
     12 C11        15.7090  -10.6580    4.6230 C.2       1    LIG35    0.0000
     13 O1         14.6920   -9.9860    4.6950 O.2       1    LIG35    0.0000
     14 O2         16.7040  -10.3490    5.4350 O.3       1    LIG35    0.0000
     15 C12        16.8620  -15.3330    4.0160 C.2       1    LIG35    0.0000
     16 N2         17.0340  -16.3740    3.1680 N.am      1    LIG35    0.0000
     17 O3         17.1380  -15.4770    5.2290 O.2       1    LIG35    0.0000
     18 C13        17.5180  -17.6580    3.5600 C.3       1    LIG35    0.0000
     19 C14        18.8910  -17.5870    4.0020 C.2       1    LIG35    0.0000
     20 C15        17.4200  -18.6310    2.3630 C.3       1    LIG35    0.0000
     21 C16        16.0320  -18.8220    1.8920 C.2       1    LIG35    0.0000
     22 O4         19.8130  -17.0880    3.1790 O.3       1    LIG35    0.0000
     23 O5         19.1860  -17.9940    5.1170 O.2       1    LIG35    0.0000
     24 C17        21.1640  -16.9670    3.6250 C.3       1    LIG35    0.0000
     25 C18        15.6400  -18.3800    0.6120 C.2       1    LIG35    0.0000
     26 C19        14.3190  -18.5610    0.1690 C.2       1    LIG35    0.0000
     27 C20        13.3780  -19.1900    1.0020 C.2       1    LIG35    0.0000
     28 C21        13.7600  -19.6360    2.2780 C.2       1    LIG35    0.0000
     29 C22        15.0820  -19.4530    2.7200 C.2       1    LIG35    0.0000
     30 O6         12.1090  -19.3630    0.5700 O.3       1    LIG35    0.0000
     31 C23        14.4030   -9.0530   -1.5860 C.2       1    LIG35    0.0000
     32 C24        13.9430   -7.8790   -2.2110 C.2       1    LIG35    0.0000
     33 C25        13.1690   -6.9580   -1.4850 C.2       1    LIG35    0.0000
     34 C26        12.8540   -7.2120   -0.1390 C.2       1    LIG35    0.0000
     35 C27        13.3170   -8.3890    0.4780 C.2       1    LIG35    0.0000
     36 Cl1        11.9190   -6.1050    0.7340 Cl        1    LIG35    0.0000
     37 Cl2        14.3240   -7.5730   -3.8310 Cl        1    LIG35    0.0000
     38 H1         14.4110  -11.7820   -1.3030 H         1    LIG35    0.0000
     39 H2         15.2320  -13.7680   -0.2470 H         1    LIG35    0.0000
     40 H3         14.8940   -9.6600    2.2970 H         1    LIG35    0.0000
     41 H4         16.5630  -12.9950    5.3030 H         1    LIG35    0.0000
     42 H5         16.5180   -9.5770    6.0070 H         1    LIG35    0.0000
     43 H6         16.7950  -16.2380    2.2380 H         1    LIG35    0.0000
     44 H7         16.9020  -18.0400    4.3780 H         1    LIG35    0.0000
     45 H8         18.0430  -18.2470    1.5520 H         1    LIG35    0.0000
     46 H9         17.8210  -19.6030    2.6600 H         1    LIG35    0.0000
     47 H10        21.7670  -16.5390    2.8250 H         1    LIG35    0.0000
     48 H11        21.2110  -16.3120    4.4970 H         1    LIG35    0.0000
     49 H12        21.5610  -17.9490    3.8860 H         1    LIG35    0.0000
     50 H13        16.3160  -17.9230   -0.0010 H         1    LIG35    0.0000
     51 H14        14.0430  -18.2370   -0.7580 H         1    LIG35    0.0000
     52 H15        13.0810  -20.0950    2.8850 H         1    LIG35    0.0000
     53 H16        15.3520  -19.7820    3.6480 H         1    LIG35    0.0000
     54 H17        11.5170  -19.8110    1.2090 H         1    LIG35    0.0000
     55 H18        14.9770   -9.7060   -2.1240 H         1    LIG35    0.0000
     56 H19        12.8340   -6.1040   -1.9360 H         1    LIG35    0.0000
     57 H20        13.0690   -8.5650    1.4540 H         1    LIG35    0.0000
@<TRIPOS>BOND
     1    1    2 2
     2    1    4 1
     3    1   11 1
     4    2    3 1
     5    2   38 1
     6    3    6 2
     7    3   39 1
     8    4    5 2
     9    4   40 1
    10    5    6 1
    11    5   10 1
    12    6    7 1
    13    7    8 2
    14    8    9 1
    15    8   15 1
    16    9   10 2
    17    9   41 1
    18   10   12 1
    19   11   31 2
    20   11   35 1
    21   12   13 2
    22   12   14 1
    23   14   42 1
    24   15   16 1
    25   15   17 2
    26   18   16 1
    27   16   43 1
    28   18   19 1
    29   18   20 1
    30   18   44 1
    31   19   22 1
    32   19   23 2
    33   20   21 1
    34   20   45 1
    35   20   46 1
    36   21   25 2
    37   21   29 1
    38   22   24 1
    39   24   47 1
    40   24   48 1
    41   24   49 1
    42   25   26 1
    43   25   50 1
    44   26   27 2
    45   26   51 1
    46   27   28 1
    47   27   30 1
    48   28   29 2
    49   28   52 1
    50   29   53 1
    51   30   54 1
    52   31   32 1
    53   31   55 1
    54   32   33 2
    55   32   37 1
    56   33   34 1
    57   33   56 1
    58   34   35 2
    59   34   36 1
    60   35   57 1
@<TRIPOS>SUBSTRUCTURE
     1    LIG35    1   GROUP 1   LIG 1
@<TRIPOS>MOLECULE
50579849
   46    48    1     0     0
SMALL
USER_CHARGES


@<TRIPOS>ATOM
      1 C1          3.4330   -3.9210    0.4180 C.2       1    LIG36    0.0000
      2 C2          3.6020   -5.2870    0.1570 C.2       1    LIG36    0.0000
      3 N1          4.8460   -5.8070    0.0420 N.2       1    LIG36    0.0000
      4 C3          5.9530   -5.0420    0.1850 C.2       1    LIG36    0.0000
      5 N2          5.7970   -3.7200    0.4500 N.2       1    LIG36    0.0000
      6 C4          4.5830   -3.1250    0.5680 C.2       1    LIG36    0.0000
      7 N3          7.1640   -5.6260    0.0290 N.pl3     1    LIG36    0.0000
      8 C5          8.3530   -4.9830    0.1230 C.2       1    LIG36    0.0000
      9 C6          9.2460   -5.0290   -0.9630 C.2       1    LIG36    0.0000
     10 C7         10.4950   -4.3880   -0.8980 C.2       1    LIG36    0.0000
     11 C8         10.8700   -3.7120    0.2860 C.2       1    LIG36    0.0000
     12 C9          9.9740   -3.6500    1.3770 C.2       1    LIG36    0.0000
     13 C10         8.7320   -4.3030    1.2960 C.2       1    LIG36    0.0000
     14 C11         4.4710   -1.7380    0.8080 C.2       1    LIG36    0.0000
     15 S1          2.9310   -0.9420    0.8240 S.3       1    LIG36    0.0000
     16 C12         3.7810    0.5440    1.0780 C.2       1    LIG36    0.0000
     17 N4          5.1110    0.4240    1.1730 N.2       1    LIG36    0.0000
     18 C13         5.5230   -0.8430    1.0320 C.2       1    LIG36    0.0000
     19 C14         6.9460   -1.1850    1.1320 C.3       1    LIG36    0.0000
     20 C15         3.0960    1.8330    1.1760 C.3       1    LIG36    0.0000
     21 O1         12.1070   -3.1580    0.3790 O.3       1    LIG36    0.0000
     22 C16        13.0750   -3.8160    1.1990 C.3       1    LIG36    0.0000
     23 O2         10.2720   -3.0020    2.5380 O.3       1    LIG36    0.0000
     24 C17        10.5690   -1.6030    2.5110 C.3       1    LIG36    0.0000
     25 O3         11.3000   -4.4970   -1.9940 O.3       1    LIG36    0.0000
     26 C18        11.9280   -3.3460   -2.5670 C.3       1    LIG36    0.0000
     27 H1          2.4940   -3.5300    0.4960 H         1    LIG36    0.0000
     28 H2          2.7880   -5.8920    0.0460 H         1    LIG36    0.0000
     29 H3          7.1770   -6.5640   -0.2180 H         1    LIG36    0.0000
     30 H4          8.9830   -5.5280   -1.8140 H         1    LIG36    0.0000
     31 H5          8.0980   -4.2770    2.0950 H         1    LIG36    0.0000
     32 H6          7.5290   -0.2860    1.3360 H         1    LIG36    0.0000
     33 H7          7.0930   -1.8930    1.9480 H         1    LIG36    0.0000
     34 H8          7.2900   -1.6260    0.1960 H         1    LIG36    0.0000
     35 H9          3.8250    2.6320    1.3170 H         1    LIG36    0.0000
     36 H10         2.5350    2.0140    0.2600 H         1    LIG36    0.0000
     37 H11         2.4110    1.8160    2.0240 H         1    LIG36    0.0000
     38 H12        14.0140   -3.2650    1.1460 H         1    LIG36    0.0000
     39 H13        12.7410   -3.8460    2.2380 H         1    LIG36    0.0000
     40 H14        13.2420   -4.8330    0.8410 H         1    LIG36    0.0000
     41 H15        10.7300   -1.2570    3.5320 H         1    LIG36    0.0000
     42 H16        11.4700   -1.4050    1.9320 H         1    LIG36    0.0000
     43 H17         9.7330   -1.0480    2.0820 H         1    LIG36    0.0000
     44 H18        12.4120   -3.6380   -3.4990 H         1    LIG36    0.0000
     45 H19        11.1830   -2.5790   -2.7860 H         1    LIG36    0.0000
     46 H20        12.6850   -2.9400   -1.8980 H         1    LIG36    0.0000
@<TRIPOS>BOND
     1    1    2 2
     2    1    6 1
     3    1   27 1
     4    2    3 1
     5    2   28 1
     6    3    4 2
     7    4    5 1
     8    4    7 1
     9    5    6 2
    10    6   14 1
    11    7    8 1
    12    7   29 1
    13    8    9 1
    14    8   13 2
    15    9   10 2
    16    9   30 1
    17   10   11 1
    18   10   25 1
    19   11   12 2
    20   11   21 1
    21   12   13 1
    22   12   23 1
    23   13   31 1
    24   14   15 1
    25   14   18 2
    26   15   16 1
    27   16   17 2
    28   16   20 1
    29   17   18 1
    30   18   19 1
    31   19   32 1
    32   19   33 1
    33   19   34 1
    34   20   35 1
    35   20   36 1
    36   20   37 1
    37   21   22 1
    38   22   38 1
    39   22   39 1
    40   22   40 1
    41   23   24 1
    42   24   41 1
    43   24   42 1
    44   24   43 1
    45   25   26 1
    46   26   44 1
    47   26   45 1
    48   26   46 1
@<TRIPOS>SUBSTRUCTURE
     1    LIG36    1   GROUP 1   LIG 1
@<TRIPOS>MOLECULE
184852
   52    54    1     0     0
SMALL
USER_CHARGES


@<TRIPOS>ATOM
      1 C1         -1.2450    1.0100    0.8160 C.2       1    LIG37    0.0000
      2 N1         -0.1270    0.2400    0.8360 N.2       1    LIG37    0.0000
      3 N2         -1.1340    2.3560    0.6500 N.2       1    LIG37    0.0000
      4 C2          1.2210    2.1930    0.5180 C.2       1    LIG37    0.0000
      5 C3          1.0850    0.8240    0.6900 C.2       1    LIG37    0.0000
      6 C4          3.1710    1.3300    0.4970 C.2       1    LIG37    0.0000
      7 N3          2.5200    2.5050    0.3980 N.2       1    LIG37    0.0000
      8 N4          2.3180    0.2980    0.6730 N.pl3     1    LIG37    0.0000
      9 C5          0.0640    2.9810    0.4960 C.2       1    LIG37    0.0000
     10 N5          0.1450    4.3150    0.3200 N.pl3     1    LIG37    0.0000
     11 N6         -2.4440    0.4170    0.9700 N.pl3     1    LIG37    0.0000
     12 C6         -1.0000    5.1560    0.2750 C.3       1    LIG37    0.0000
     13 C7         -0.5990    6.5510    0.0150 C.2       1    LIG37    0.0000
     14 C8          0.1660    9.2170   -0.5080 C.2       1    LIG37    0.0000
     15 C9          0.4100    8.2160   -1.4630 C.2       1    LIG37    0.0000
     16 C10         0.0270    6.8890   -1.2020 C.2       1    LIG37    0.0000
     17 C11        -0.8420    7.5630    0.9670 C.2       1    LIG37    0.0000
     18 C12        -0.4600    8.8900    0.7070 C.2       1    LIG37    0.0000
     19 C13        -3.6820    1.1200    0.9870 C.3       1    LIG37    0.0000
     20 C14        -4.0320    1.6610   -0.4140 C.3       1    LIG37    0.0000
     21 O1         -5.2560    2.3830   -0.3750 O.3       1    LIG37    0.0000
     22 C15         3.3750   -1.6010   -0.4420 C.3       1    LIG37    0.0000
     23 C16         2.6530   -1.0830    0.8130 C.3       1    LIG37    0.0000
     24 C17         3.5260   -1.3120    2.0580 C.3       1    LIG37    0.0000
     25 C18        -4.7920    0.1670    1.4660 C.3       1    LIG37    0.0000
     26 C19        -4.5330   -0.3320    2.8950 C.3       1    LIG37    0.0000
     27 H1          4.1860    1.2340    0.4440 H         1    LIG37    0.0000
     28 H2          1.0250    4.7130    0.2120 H         1    LIG37    0.0000
     29 H3         -2.4600   -0.5420    1.1110 H         1    LIG37    0.0000
     30 H4         -1.6680    4.8260   -0.5220 H         1    LIG37    0.0000
     31 H5         -1.5330    5.0800    1.2260 H         1    LIG37    0.0000
     32 H6          0.4430   10.1810   -0.6960 H         1    LIG37    0.0000
     33 H7          0.8640    8.4520   -2.3450 H         1    LIG37    0.0000
     34 H8          0.2060    6.1670   -1.9010 H         1    LIG37    0.0000
     35 H9         -1.2970    7.3350    1.8510 H         1    LIG37    0.0000
     36 H10        -0.6380    9.6170    1.4010 H         1    LIG37    0.0000
     37 H11        -3.6200    1.9570    1.6860 H         1    LIG37    0.0000
     38 H12        -3.2470    2.3330   -0.7620 H         1    LIG37    0.0000
     39 H13        -4.1260    0.8310   -1.1150 H         1    LIG37    0.0000
     40 H14        -5.5290    2.7610   -1.2370 H         1    LIG37    0.0000
     41 H15         3.5630   -2.6700   -0.3400 H         1    LIG37    0.0000
     42 H16         2.7500   -1.4310   -1.3190 H         1    LIG37    0.0000
     43 H17         4.3260   -1.0820   -0.5720 H         1    LIG37    0.0000
     44 H18         1.7420   -1.6720    0.9360 H         1    LIG37    0.0000
     45 H19         3.7190   -2.3780    2.1770 H         1    LIG37    0.0000
     46 H20         4.4760   -0.7860    1.9560 H         1    LIG37    0.0000
     47 H21         3.0040   -0.9440    2.9420 H         1    LIG37    0.0000
     48 H22        -5.7470    0.6950    1.4540 H         1    LIG37    0.0000
     49 H23        -4.8560   -0.6890    0.7930 H         1    LIG37    0.0000
     50 H24        -5.3620   -0.9650    3.2120 H         1    LIG37    0.0000
     51 H25        -3.6090   -0.9100    2.9270 H         1    LIG37    0.0000
     52 H26        -4.4520    0.5190    3.5720 H         1    LIG37    0.0000
@<TRIPOS>BOND
     1    1    2 1
     2    1    3 2
     3    1   11 1
     4    2    5 2
     5    3    9 1
     6    4    5 1
     7    4    7 1
     8    4    9 2
     9    5    8 1
    10    6    7 2
    11    6    8 1
    12    6   27 1
    13    8   23 1
    14    9   10 1
    15   10   12 1
    16   10   28 1
    17   19   11 1
    18   11   29 1
    19   12   13 1
    20   12   30 1
    21   12   31 1
    22   13   16 2
    23   13   17 1
    24   14   15 2
    25   14   18 1
    26   14   32 1
    27   15   16 1
    28   15   33 1
    29   16   34 1
    30   17   18 2
    31   17   35 1
    32   18   36 1
    33   19   20 1
    34   19   25 1
    35   19   37 1
    36   20   21 1
    37   20   38 1
    38   20   39 1
    39   21   40 1
    40   22   23 1
    41   22   41 1
    42   22   42 1
    43   22   43 1
    44   23   24 1
    45   23   44 1
    46   24   45 1
    47   24   46 1
    48   24   47 1
    49   25   26 1
    50   25   48 1
    51   25   49 1
    52   26   50 1
    53   26   51 1
    54   26   52 1
@<TRIPOS>SUBSTRUCTURE
     1    LIG37    1   GROUP 1   LIG 1
@<TRIPOS>MOLECULE
50579852
   42    44    1     0     0
SMALL
USER_CHARGES


@<TRIPOS>ATOM
      1 C1         -0.3650    4.7800    0.5900 C.2       1    LIG38    0.0000
      2 C2         -2.5810    4.7640    0.3790 C.2       1    LIG38    0.0000
      3 C3         -2.3100    3.3910    0.4240 C.2       1    LIG38    0.0000
      4 N1         -1.4770    5.5170    0.4740 N.2       1    LIG38    0.0000
      5 C4         -3.9040    5.3870    0.2420 C.3       1    LIG38    0.0000
      6 S1         -0.6150    3.0680    0.5830 S.3       1    LIG38    0.0000
      7 C5         -3.2550    2.3460    0.3560 C.2       1    LIG38    0.0000
      8 C6         -2.8540    0.9980    0.4020 C.2       1    LIG38    0.0000
      9 C7         -3.8470    0.0110    0.3320 C.2       1    LIG38    0.0000
     10 C8         -5.5340    1.6600    0.1840 C.2       1    LIG38    0.0000
     11 N2         -4.5780    2.6190    0.2490 N.2       1    LIG38    0.0000
     12 N3         -5.1510    0.3630    0.2250 N.2       1    LIG38    0.0000
     13 N4         -6.8490    1.9590    0.0840 N.pl3     1    LIG38    0.0000
     14 C9         -7.3160    3.2270    0.0550 C.2       1    LIG38    0.0000
     15 C10        -7.8780    5.2450   -1.1920 C.2       1    LIG38    0.0000
     16 C11        -7.4290    3.9140   -1.1690 C.2       1    LIG38    0.0000
     17 C12        -7.6700    3.8750    1.2530 C.2       1    LIG38    0.0000
     18 C13        -8.1180    5.2060    1.2290 C.2       1    LIG38    0.0000
     19 C14        -8.2200    5.8990    0.0080 C.2       1    LIG38    0.0000
     20 C15         0.9610    5.3810    0.7150 C.3       1    LIG38    0.0000
     21 N5         -8.6330    7.1900   -0.0120 N.pl3     1    LIG38    1.0000
     22 C16        -9.9600    7.4970   -0.4320 C.3       1    LIG38    0.0000
     23 C17        -7.7300    8.2190    0.3880 C.3       1    LIG38    0.0000
     24 H1         -3.8040    6.4730    0.2290 H         1    LIG38    0.0000
     25 H2         -4.3700    5.0660   -0.6900 H         1    LIG38    0.0000
     26 H3         -4.5370    5.1020    1.0830 H         1    LIG38    0.0000
     27 H4         -1.8720    0.7310    0.4830 H         1    LIG38    0.0000
     28 H5         -3.5890   -0.9750    0.3610 H         1    LIG38    0.0000
     29 H6         -7.4850    1.2280    0.0450 H         1    LIG38    0.0000
     30 H7         -7.9490    5.7400   -2.0820 H         1    LIG38    0.0000
     31 H8         -7.1720    3.4510   -2.0420 H         1    LIG38    0.0000
     32 H9         -7.5900    3.3830    2.1440 H         1    LIG38    0.0000
     33 H10        -8.3640    5.6730    2.1030 H         1    LIG38    0.0000
     34 H11         1.7120    4.5960    0.7980 H         1    LIG38    0.0000
     35 H12         1.1690    5.9900   -0.1640 H         1    LIG38    0.0000
     36 H13         0.9930    6.0070    1.6070 H         1    LIG38    0.0000
     37 H14       -10.1460    8.5710   -0.3860 H         1    LIG38    0.0000
     38 H15       -10.1130    7.1640   -1.4600 H         1    LIG38    0.0000
     39 H16       -10.6790    6.9940    0.2170 H         1    LIG38    0.0000
     40 H17        -8.1970    9.2010    0.3110 H         1    LIG38    0.0000
     41 H18        -7.4220    8.0630    1.4230 H         1    LIG38    0.0000
     42 H19        -6.8470    8.2040   -0.2530 H         1    LIG38    0.0000
@<TRIPOS>BOND
     1    1    4 2
     2    1    6 1
     3    1   20 1
     4    2    3 2
     5    2    4 1
     6    2    5 1
     7    3    6 1
     8    3    7 1
     9    5   24 1
    10    5   25 1
    11    5   26 1
    12    7    8 2
    13    7   11 1
    14    8    9 1
    15    8   27 1
    16    9   12 2
    17    9   28 1
    18   10   11 2
    19   10   12 1
    20   10   13 1
    21   13   14 1
    22   13   29 1
    23   14   16 2
    24   14   17 1
    25   15   16 1
    26   15   19 2
    27   15   30 1
    28   16   31 1
    29   17   18 2
    30   17   32 1
    31   18   19 1
    32   18   33 1
    33   19   21 1
    34   20   34 1
    35   20   35 1
    36   20   36 1
    37   21   22 1
    38   21   23 1
    39   22   37 1
    40   22   38 1
    41   22   39 1
    42   23   40 1
    43   23   41 1
    44   23   42 1
@<TRIPOS>SUBSTRUCTURE
     1    LIG38    1   GROUP 1   LIG 1
@<TRIPOS>MOLECULE
50579848
   48    50    1     0     0
SMALL
USER_CHARGES


@<TRIPOS>ATOM
      1 C1         12.0670   -4.7040    0.4400 C.2       1    LIG39    0.0000
      2 C2         12.2240   -6.0840    0.2530 C.2       1    LIG39    0.0000
      3 N1         13.4620   -6.6190    0.1510 N.2       1    LIG39    0.0000
      4 C3         14.5760   -5.8560    0.2300 C.2       1    LIG39    0.0000
      5 N2         14.4350   -4.5190    0.4190 N.2       1    LIG39    0.0000
      6 C4         13.2270   -3.9090    0.5250 C.2       1    LIG39    0.0000
      7 N3         15.7790   -6.4570    0.0790 N.pl3     1    LIG39    0.0000
      8 C5         16.9650   -5.8060    0.0730 C.2       1    LIG39    0.0000
      9 C6         17.7470   -5.8220   -1.0960 C.2       1    LIG39    0.0000
     10 C7         18.9850   -5.1570   -1.1390 C.2       1    LIG39    0.0000
     11 C8         19.4670   -4.5040    0.0170 C.2       1    LIG39    0.0000
     12 C9         18.6830   -4.4760    1.1930 C.2       1    LIG39    0.0000
     13 C10        17.4420   -5.1350    1.2140 C.2       1    LIG39    0.0000
     14 C11        13.1290   -2.5110    0.6940 C.2       1    LIG39    0.0000
     15 S1         11.5920   -1.7080    0.7140 S.3       1    LIG39    0.0000
     16 C12        12.4510   -0.2160    0.8950 C.2       1    LIG39    0.0000
     17 N4         13.7830   -0.3370    0.9540 N.2       1    LIG39    0.0000
     18 C13        14.1900   -1.6090    0.8470 C.2       1    LIG39    0.0000
     19 C14        15.6180   -1.9470    0.8970 C.3       1    LIG39    0.0000
     20 N5         11.8500    0.9860    0.9650 N.pl3     1    LIG39    0.0000
     21 O1         20.7000   -3.9340   -0.0010 O.3       1    LIG39    0.0000
     22 C15        21.7810   -4.6600    0.5870 C.3       1    LIG39    0.0000
     23 O2         19.0810   -3.8670    2.3450 O.3       1    LIG39    0.0000
     24 C16        19.5080   -2.5020    2.3410 C.3       1    LIG39    0.0000
     25 O3         19.6830   -5.2140   -2.3090 O.3       1    LIG39    0.0000
     26 C17        20.1560   -4.0150   -2.9300 C.3       1    LIG39    0.0000
     27 C18        10.4430    1.1370    0.8890 C.3       1    LIG39    0.0000
     28 H1         11.1320   -4.3020    0.5130 H         1    LIG39    0.0000
     29 H2         11.4040   -6.6880    0.1870 H         1    LIG39    0.0000
     30 H3         15.7830   -7.4110   -0.0960 H         1    LIG39    0.0000
     31 H4         17.4100   -6.3120   -1.9260 H         1    LIG39    0.0000
     32 H5         16.8830   -5.1260    2.0680 H         1    LIG39    0.0000
     33 H6         16.2080   -1.0400    1.0350 H         1    LIG39    0.0000
     34 H7         15.8080   -2.6210    1.7330 H         1    LIG39    0.0000
     35 H8         15.9210   -2.4260   -0.0350 H         1    LIG39    0.0000
     36 H9         12.4030    1.7780    1.0630 H         1    LIG39    0.0000
     37 H10        22.6920   -4.0690    0.4970 H         1    LIG39    0.0000
     38 H11        21.5860   -4.8490    1.6430 H         1    LIG39    0.0000
     39 H12        21.9240   -5.6090    0.0670 H         1    LIG39    0.0000
     40 H13        19.6550   -2.1850    3.3740 H         1    LIG39    0.0000
     41 H14        20.4500   -2.3870    1.8050 H         1    LIG39    0.0000
     42 H15        18.7460   -1.8690    1.8840 H         1    LIG39    0.0000
     43 H16        20.5760   -4.2690   -3.9020 H         1    LIG39    0.0000
     44 H17        19.3330   -3.3140   -3.0760 H         1    LIG39    0.0000
     45 H18        20.9340   -3.5430   -2.3310 H         1    LIG39    0.0000
     46 H19        10.1930    2.1940    0.9740 H         1    LIG39    0.0000
     47 H20        10.0760    0.7620   -0.0670 H         1    LIG39    0.0000
     48 H21         9.9590    0.5930    1.7020 H         1    LIG39    0.0000
@<TRIPOS>BOND
     1    1    2 2
     2    1    6 1
     3    1   28 1
     4    2    3 1
     5    2   29 1
     6    3    4 2
     7    4    5 1
     8    4    7 1
     9    5    6 2
    10    6   14 1
    11    7    8 1
    12    7   30 1
    13    8    9 1
    14    8   13 2
    15    9   10 2
    16    9   31 1
    17   10   11 1
    18   10   25 1
    19   11   12 2
    20   11   21 1
    21   12   13 1
    22   12   23 1
    23   13   32 1
    24   14   15 1
    25   14   18 2
    26   15   16 1
    27   16   17 2
    28   16   20 1
    29   17   18 1
    30   18   19 1
    31   19   33 1
    32   19   34 1
    33   19   35 1
    34   20   27 1
    35   20   36 1
    36   21   22 1
    37   22   37 1
    38   22   38 1
    39   22   39 1
    40   23   24 1
    41   24   40 1
    42   24   41 1
    43   24   42 1
    44   25   26 1
    45   26   43 1
    46   26   44 1
    47   26   45 1
    48   27   46 1
    49   27   47 1
    50   27   48 1
@<TRIPOS>SUBSTRUCTURE
     1    LIG39    1   GROUP 1   LIG 1
@<TRIPOS>MOLECULE
50579851
   39    41    1     0     0
SMALL
USER_CHARGES


@<TRIPOS>ATOM
      1 C1         12.4600    1.2190    0.4500 C.2       1    LIG40    0.0000
      2 C2         12.6430   -0.1670    0.3660 C.2       1    LIG40    0.0000
      3 N1         13.8920   -0.6840    0.3130 N.2       1    LIG40    0.0000
      4 C3         14.9920    0.1030    0.3420 C.2       1    LIG40    0.0000
      5 N2         14.8240    1.4480    0.4220 N.2       1    LIG40    0.0000
      6 C4         13.6030    2.0400    0.4750 C.2       1    LIG40    0.0000
      7 N3         16.2050   -0.4960    0.2710 N.pl3     1    LIG40    0.0000
      8 C5         17.4030    0.1390    0.2770 C.2       1    LIG40    0.0000
      9 C6         17.7440    1.0970    1.2530 C.2       1    LIG40    0.0000
     10 C7         19.0030    1.7210    1.2280 C.2       1    LIG40    0.0000
     11 C8         19.9480    1.3850    0.2360 C.2       1    LIG40    0.0000
     12 C9         19.6120    0.4120   -0.7250 C.2       1    LIG40    0.0000
     13 C10        18.3510   -0.2090   -0.7020 C.2       1    LIG40    0.0000
     14 C11        13.4730    3.4440    0.5450 C.2       1    LIG40    0.0000
     15 S1         11.9150    4.2020    0.5970 S.3       1    LIG40    0.0000
     16 C12        12.7340    5.7250    0.6480 C.2       1    LIG40    0.0000
     17 N4         14.0710    5.6490    0.6280 N.2       1    LIG40    0.0000
     18 C13        14.5100    4.3840    0.5700 C.2       1    LIG40    0.0000
     19 C14        15.9480    4.0930    0.5490 C.3       1    LIG40    0.0000
     20 C15        12.0150    6.9960    0.7120 C.3       1    LIG40    0.0000
     21 N5         21.1770    1.9530    0.1600 N.pl3     1    LIG40    0.0000
     22 C16        21.6510    2.9720    1.0280 C.3       1    LIG40    0.0000
     23 H1         11.5170    1.6080    0.4870 H         1    LIG40    0.0000
     24 H2         11.8340   -0.7880    0.3420 H         1    LIG40    0.0000
     25 H3         16.2110   -1.4580    0.1580 H         1    LIG40    0.0000
     26 H4         17.0760    1.3430    1.9840 H         1    LIG40    0.0000
     27 H5         19.2270    2.4180    1.9380 H         1    LIG40    0.0000
     28 H6         20.2850    0.1530   -1.4460 H         1    LIG40    0.0000
     29 H7         18.1240   -0.9110   -1.4070 H         1    LIG40    0.0000
     30 H8         16.5170    5.0240    0.5560 H         1    LIG40    0.0000
     31 H9         16.2140    3.5130    1.4320 H         1    LIG40    0.0000
     32 H10        16.2020    3.5310   -0.3510 H         1    LIG40    0.0000
     33 H11        12.7210    7.8250    0.7390 H         1    LIG40    0.0000
     34 H12        11.3770    7.0940   -0.1660 H         1    LIG40    0.0000
     35 H13        11.3990    7.0170    1.6110 H         1    LIG40    0.0000
     36 H14        21.7740    1.6450   -0.5400 H         1    LIG40    0.0000
     37 H15        22.6640    3.2450    0.7340 H         1    LIG40    0.0000
     38 H16        21.0120    3.8540    0.9580 H         1    LIG40    0.0000
     39 H17        21.6660    2.6120    2.0580 H         1    LIG40    0.0000
@<TRIPOS>BOND
     1    1    2 1
     2    1    6 2
     3    1   23 1
     4    2    3 2
     5    2   24 1
     6    3    4 1
     7    4    5 2
     8    4    7 1
     9    5    6 1
    10    6   14 1
    11    7    8 1
    12    7   25 1
    13    8    9 1
    14    8   13 2
    15    9   10 2
    16    9   26 1
    17   10   11 1
    18   10   27 1
    19   11   12 2
    20   11   21 1
    21   12   13 1
    22   12   28 1
    23   13   29 1
    24   14   15 1
    25   14   18 2
    26   15   16 1
    27   16   17 2
    28   16   20 1
    29   17   18 1
    30   18   19 1
    31   19   30 1
    32   19   31 1
    33   19   32 1
    34   20   33 1
    35   20   34 1
    36   20   35 1
    37   21   22 1
    38   21   36 1
    39   22   37 1
    40   22   38 1
    41   22   39 1
@<TRIPOS>SUBSTRUCTURE
     1    LIG40    1   GROUP 1   LIG 1
@<TRIPOS>MOLECULE
50579841
   55    58    1     0     0
SMALL
USER_CHARGES


@<TRIPOS>ATOM
      1 C1          4.3510  -24.2110    0.3040 C.2       1    LIG41    0.0000
      2 C2          4.5730  -25.5880    0.1660 C.2       1    LIG41    0.0000
      3 N1          5.8370  -26.0720    0.1480 N.2       1    LIG41    0.0000
      4 C3          6.9130  -25.2600    0.2670 C.2       1    LIG41    0.0000
      5 N2          6.7070  -23.9250    0.4020 N.2       1    LIG41    0.0000
      6 C4          5.4700  -23.3660    0.4240 C.2       1    LIG41    0.0000
      7 N3          8.1420  -25.8240    0.2210 N.pl3     1    LIG41    0.0000
      8 C5          9.3200  -25.1590    0.3130 C.2       1    LIG41    0.0000
      9 C6         10.3080  -25.4110   -0.6560 C.2       1    LIG41    0.0000
     10 C7         11.5520  -24.7600   -0.5900 C.2       1    LIG41    0.0000
     11 C8         11.8270  -23.8590    0.4570 C.2       1    LIG41    0.0000
     12 C9         10.8450  -23.6170    1.4360 C.2       1    LIG41    0.0000
     13 C10         9.6010  -24.2670    1.3680 C.2       1    LIG41    0.0000
     14 C11         5.3010  -21.9710    0.5520 C.2       1    LIG41    0.0000
     15 S1          3.7220  -21.2550    0.5540 S.3       1    LIG41    0.0000
     16 C12         4.4980  -19.7160    0.7130 C.2       1    LIG41    0.0000
     17 N4          5.8350  -19.7590    0.7640 N.2       1    LIG41    0.0000
     18 C13         6.3100  -21.0090    0.6770 C.2       1    LIG41    0.0000
     19 C14         7.7540  -21.2640    0.7240 C.3       1    LIG41    0.0000
     20 N5          3.8260  -18.5540    0.7830 N.pl3     1    LIG41    0.0000
     21 N6         13.0300  -23.2320    0.5210 N.pl3     1    LIG41    0.0000
     22 C15        13.4550  -22.3260   -0.4970 C.3       1    LIG41    0.0000
     23 C16        13.7640  -20.9620    0.1420 C.3       1    LIG41    0.0000
     24 N7         14.6670  -21.1430    1.2390 N.am      1    LIG41    0.0000
     25 C17        14.2150  -22.0420    2.2580 C.3       1    LIG41    0.0000
     26 C18        13.9110  -23.4120    1.6300 C.3       1    LIG41    0.0000
     27 C19        15.8840  -20.5260    1.3150 C.2       1    LIG41    0.0000
     28 O1         16.6340  -20.7290    2.2970 O.2       1    LIG41    0.0000
     29 C20        16.3740  -19.6140    0.2760 C.3       1    LIG41    0.0000
     30 C21         2.4120  -18.5000    0.7300 C.3       1    LIG41    0.0000
     31 H1          3.3970  -23.8480    0.3130 H         1    LIG41    0.0000
     32 H2          3.7830  -26.2260    0.0760 H         1    LIG41    0.0000
     33 H3          8.1810  -26.7790    0.0590 H         1    LIG41    0.0000
     34 H4         10.1230  -26.0660   -1.4180 H         1    LIG41    0.0000
     35 H5         12.2590  -24.9470   -1.3020 H         1    LIG41    0.0000
     36 H6         11.0340  -22.9680    2.2010 H         1    LIG41    0.0000
     37 H7          8.9010  -24.0900    2.0890 H         1    LIG41    0.0000
     38 H8          8.2960  -20.3220    0.8070 H         1    LIG41    0.0000
     39 H9          7.9870  -21.8820    1.5910 H         1    LIG41    0.0000
     40 H10         8.0720  -21.7750   -0.1860 H         1    LIG41    0.0000
     41 H11         4.3280  -17.7290    0.8730 H         1    LIG41    0.0000
     42 H12        12.6940  -22.1910   -1.2690 H         1    LIG41    0.0000
     43 H13        14.3620  -22.7130   -0.9650 H         1    LIG41    0.0000
     44 H14        14.1550  -20.2990   -0.6300 H         1    LIG41    0.0000
     45 H15        12.8340  -20.5330    0.5200 H         1    LIG41    0.0000
     46 H16        13.3000  -21.6450    2.7010 H         1    LIG41    0.0000
     47 H17        14.9490  -22.1800    3.0550 H         1    LIG41    0.0000
     48 H18        13.4850  -24.0690    2.3910 H         1    LIG41    0.0000
     49 H19        14.8430  -23.8530    1.2750 H         1    LIG41    0.0000
     50 H20        17.3610  -19.2370    0.5440 H         1    LIG41    0.0000
     51 H21        16.4430  -20.1450   -0.6730 H         1    LIG41    0.0000
     52 H22        15.6880  -18.7720    0.1770 H         1    LIG41    0.0000
     53 H23         2.0910  -17.4610    0.8120 H         1    LIG41    0.0000
     54 H24         2.0550  -18.9080   -0.2170 H         1    LIG41    0.0000
     55 H25         1.9820  -19.0700    1.5560 H         1    LIG41    0.0000
@<TRIPOS>BOND
     1    1    2 1
     2    1    6 2
     3    1   31 1
     4    2    3 2
     5    2   32 1
     6    3    4 1
     7    4    5 2
     8    4    7 1
     9    5    6 1
    10    6   14 1
    11    7    8 1
    12    7   33 1
    13    8    9 2
    14    8   13 1
    15    9   10 1
    16    9   34 1
    17   10   11 2
    18   10   35 1
    19   11   12 1
    20   11   21 1
    21   12   13 2
    22   12   36 1
    23   13   37 1
    24   14   15 1
    25   14   18 2
    26   15   16 1
    27   16   17 2
    28   16   20 1
    29   17   18 1
    30   18   19 1
    31   19   38 1
    32   19   39 1
    33   19   40 1
    34   20   30 1
    35   20   41 1
    36   21   22 1
    37   21   26 1
    38   22   23 1
    39   22   42 1
    40   22   43 1
    41   23   24 1
    42   23   44 1
    43   23   45 1
    44   24   25 1
    45   24   27 1
    46   25   26 1
    47   25   46 1
    48   25   47 1
    49   26   48 1
    50   26   49 1
    51   27   28 2
    52   27   29 1
    53   29   50 1
    54   29   51 1
    55   29   52 1
    56   30   53 1
    57   30   54 1
    58   30   55 1
@<TRIPOS>SUBSTRUCTURE
     1    LIG41    1   GROUP 1   LIG 1
@<TRIPOS>MOLECULE
50077179
   63    66    1     0     0
SMALL
USER_CHARGES


@<TRIPOS>ATOM
      1 C1         22.5580   -9.2870    0.4760 C.2       1    LIG42    0.0000
      2 C2         22.9300  -10.3310   -0.4030 C.2       1    LIG42    0.0000
      3 C3         23.7900  -11.3590    0.0120 C.2       1    LIG42    0.0000
      4 C4         23.0870   -9.3090    1.7900 C.2       1    LIG42    0.0000
      5 C5         23.9600  -10.3310    2.2300 C.2       1    LIG42    0.0000
      6 C6         24.2990  -11.3630    1.3190 C.2       1    LIG42    0.0000
      7 N1         25.1150  -12.3720    1.7070 N.2       1    LIG42    0.0000
      8 C7         25.6490  -12.4720    2.9510 C.2       1    LIG42    0.0000
      9 C8         25.3450  -11.4690    3.8920 C.2       1    LIG42    0.0000
     10 C9         24.5090  -10.3900    3.5380 C.2       1    LIG42    0.0000
     11 C10        21.6720   -8.2500    0.0510 C.2       1    LIG42    0.0000
     12 C11        24.2650   -9.4310    4.5010 C.2       1    LIG42    0.0000
     13 O1         24.4080   -8.2420    4.2660 O.2       1    LIG42    0.0000
     14 O2         23.9360   -9.7780    5.7320 O.3       1    LIG42    0.0000
     15 C12        26.4830  -13.5650    3.2570 C.2       1    LIG42    0.0000
     16 N2         26.7840  -14.4600    2.2890 N.am      1    LIG42    0.0000
     17 O3         26.9610  -13.7150    4.4060 O.2       1    LIG42    0.0000
     18 C13        27.6200  -15.5950    2.4810 C.3       1    LIG42    0.0000
     19 C14        27.9920  -16.1600    1.0940 C.3       1    LIG42    0.0000
     20 C15        26.8790  -16.6550    3.3310 C.3       1    LIG42    0.0000
     21 C16        27.7040  -17.8410    3.6400 C.2       1    LIG42    0.0000
     22 C17        27.3510  -19.1130    3.1420 C.2       1    LIG42    0.0000
     23 C18        28.1410  -20.2380    3.4360 C.2       1    LIG42    0.0000
     24 C19        29.2900  -20.1020    4.2320 C.2       1    LIG42    0.0000
     25 C20        29.6470  -18.8390    4.7370 C.2       1    LIG42    0.0000
     26 C21        28.8560  -17.7150    4.4430 C.2       1    LIG42    0.0000
     27 C22        21.7020   -7.7610   -1.2770 C.2       1    LIG42    0.0000
     28 C23        20.8290   -6.7470   -1.6970 C.2       1    LIG42    0.0000
     29 C24        19.9070   -6.1990   -0.7950 C.2       1    LIG42    0.0000
     30 C25        19.8420   -6.6530    0.5390 C.2       1    LIG42    0.0000
     31 C26        20.7300   -7.6770    0.9410 C.2       1    LIG42    0.0000
     32 C27        18.8500   -6.0490    1.4680 C.3       1    LIG42    0.0000
     33 F1         18.8860   -6.5630    2.7440 F         1    LIG42    0.0000
     34 F2         19.0670   -4.6960    1.5780 F         1    LIG42    0.0000
     35 F3         17.5760   -6.2470    0.9930 F         1    LIG42    0.0000
     36 O4         30.0460  -21.1860    4.5090 O.3       1    LIG42    0.0000
     37 C28        28.7670  -15.1290    0.2560 C.3       1    LIG42    0.0000
     38 C29        29.1800  -15.7340   -1.0910 C.3       1    LIG42    0.0000
     39 H1         22.5640  -10.3620   -1.3560 H         1    LIG42    0.0000
     40 H2         24.0390  -12.1060   -0.6380 H         1    LIG42    0.0000
     41 H3         22.8350   -8.5590    2.4350 H         1    LIG42    0.0000
     42 H4         25.7390  -11.5200    4.8340 H         1    LIG42    0.0000
     43 H5         23.8180   -9.0150    6.3350 H         1    LIG42    0.0000
     44 H6         26.4270  -14.2970    1.4020 H         1    LIG42    0.0000
     45 H7         28.5380  -15.2860    2.9870 H         1    LIG42    0.0000
     46 H8         28.6210  -17.0410    1.2190 H         1    LIG42    0.0000
     47 H9         27.0830  -16.4480    0.5630 H         1    LIG42    0.0000
     48 H10        26.5670  -16.2070    4.2760 H         1    LIG42    0.0000
     49 H11        25.9760  -16.9520    2.7920 H         1    LIG42    0.0000
     50 H12        26.5190  -19.2210    2.5610 H         1    LIG42    0.0000
     51 H13        27.8790  -21.1530    3.0690 H         1    LIG42    0.0000
     52 H14        30.4790  -18.7370    5.3180 H         1    LIG42    0.0000
     53 H15        29.1210  -16.8020    4.8150 H         1    LIG42    0.0000
     54 H16        22.3720   -8.1350   -1.9510 H         1    LIG42    0.0000
     55 H17        20.8670   -6.4070   -2.6580 H         1    LIG42    0.0000
     56 H18        19.2760   -5.4620   -1.1120 H         1    LIG42    0.0000
     57 H19        20.6780   -8.0200    1.9000 H         1    LIG42    0.0000
     58 H20        30.8310  -21.0050    5.0680 H         1    LIG42    0.0000
     59 H21        28.1410  -14.2550    0.0740 H         1    LIG42    0.0000
     60 H22        29.6620  -14.8200    0.7970 H         1    LIG42    0.0000
     61 H23        29.7260  -14.9900   -1.6700 H         1    LIG42    0.0000
     62 H24        29.8200  -16.6010   -0.9250 H         1    LIG42    0.0000
     63 H25        28.2920  -16.0400   -1.6460 H         1    LIG42    0.0000
@<TRIPOS>BOND
     1    1    2 2
     2    1    4 1
     3    1   11 1
     4    2    3 1
     5    2   39 1
     6    3    6 2
     7    3   40 1
     8    4    5 2
     9    4   41 1
    10    5    6 1
    11    5   10 1
    12    6    7 1
    13    7    8 2
    14    8    9 1
    15    8   15 1
    16    9   10 2
    17    9   42 1
    18   10   12 1
    19   11   27 2
    20   11   31 1
    21   12   13 2
    22   12   14 1
    23   14   43 1
    24   15   16 1
    25   15   17 2
    26   18   16 1
    27   16   44 1
    28   18   19 1
    29   18   20 1
    30   18   45 1
    31   19   37 1
    32   19   46 1
    33   19   47 1
    34   20   21 1
    35   20   48 1
    36   20   49 1
    37   21   22 2
    38   21   26 1
    39   22   23 1
    40   22   50 1
    41   23   24 2
    42   23   51 1
    43   24   25 1
    44   24   36 1
    45   25   26 2
    46   25   52 1
    47   26   53 1
    48   27   28 1
    49   27   54 1
    50   28   29 2
    51   28   55 1
    52   29   30 1
    53   29   56 1
    54   30   31 2
    55   30   32 1
    56   31   57 1
    57   32   33 1
    58   32   34 1
    59   32   35 1
    60   36   58 1
    61   37   38 1
    62   37   59 1
    63   37   60 1
    64   38   61 1
    65   38   62 1
    66   38   63 1
@<TRIPOS>SUBSTRUCTURE
     1    LIG42    1   GROUP 1   LIG 1
@<TRIPOS>MOLECULE
50375321
   37    40    1     0     0
SMALL
USER_CHARGES


@<TRIPOS>ATOM
      1 C1         -0.3720  -24.4820    1.2290 C.2       1    LIG43    0.0000
      2 C2         -0.3590  -25.8800    1.0910 C.2       1    LIG43    0.0000
      3 C3          1.7900  -24.3410    0.1170 C.2       1    LIG43    0.0000
      4 C4          0.6940  -23.7020    0.7350 C.2       1    LIG43    0.0000
      5 C5          1.8120  -25.7430   -0.0250 C.2       1    LIG43    0.0000
      6 C6          0.7280  -26.5150    0.4660 C.2       1    LIG43    0.0000
      7 N1          0.7480  -27.8650    0.3310 N.2       1    LIG43    0.0000
      8 C7          1.7720  -28.5290   -0.2610 C.2       1    LIG43    0.0000
      9 C8          2.8700  -27.8130   -0.7630 C.2       1    LIG43    0.0000
     10 C9          2.8850  -26.4140   -0.6420 C.2       1    LIG43    0.0000
     11 C10         0.6600  -22.3350    0.8990 C.2       1    LIG43    0.0000
     12 C11         0.8230  -21.4680   -0.1100 C.2       1    LIG43    0.0000
     13 C12         0.7880  -20.1080    0.0310 C.2       1    LIG43    0.0000
     14 N2          0.9520  -19.4530   -1.0830 N.2       1    LIG43    0.0000
     15 C13         1.1150  -20.2510   -2.1020 C.2       1    LIG43    0.0000
     16 S1          1.0740  -21.9420   -1.7280 S.3       1    LIG43    0.0000
     17 O1          0.6160  -19.5180    1.1210 O.2       1    LIG43    0.0000
     18 N3          1.2970  -19.7750   -3.3460 N.pl3     1    LIG43    0.0000
     19 C14         1.4730  -20.6320   -4.4640 C.3       1    LIG43    0.0000
     20 C15         1.6340  -19.8450   -5.6900 C.2       1    LIG43    0.0000
     21 S2          0.5170  -19.9510   -7.0130 S.3       1    LIG43    0.0000
     22 C16         1.4820  -18.7900   -7.8640 C.2       1    LIG43    0.0000
     23 C17         2.5970  -18.3570   -7.1600 C.2       1    LIG43    0.0000
     24 C18         2.6850  -18.9610   -5.9160 C.2       1    LIG43    0.0000
     25 H1         -1.1670  -24.0340    1.6880 H         1    LIG43    0.0000
     26 H2         -1.1390  -26.4330    1.4470 H         1    LIG43    0.0000
     27 H3          2.5740  -23.7830   -0.2270 H         1    LIG43    0.0000
     28 H4          1.7440  -29.5460   -0.3390 H         1    LIG43    0.0000
     29 H5          3.6460  -28.3020   -1.2100 H         1    LIG43    0.0000
     30 H6          3.6820  -25.8890   -1.0060 H         1    LIG43    0.0000
     31 H7          0.4850  -21.9830    1.8110 H         1    LIG43    0.0000
     32 H8          1.3050  -18.8140   -3.4800 H         1    LIG43    0.0000
     33 H9          2.3560  -21.2580   -4.3210 H         1    LIG43    0.0000
     34 H10         0.5970  -21.2740   -4.5730 H         1    LIG43    0.0000
     35 H11         1.2500  -18.4560   -8.7990 H         1    LIG43    0.0000
     36 H12         3.2690  -17.6770   -7.5150 H         1    LIG43    0.0000
     37 H13         3.4330  -18.7790   -5.2460 H         1    LIG43    0.0000
@<TRIPOS>BOND
     1    1    2 1
     2    1    4 2
     3    1   25 1
     4    2    6 2
     5    2   26 1
     6    3    4 1
     7    3    5 2
     8    3   27 1
     9    4   11 1
    10    5    6 1
    11    5   10 1
    12    6    7 1
    13    7    8 2
    14    8    9 1
    15    8   28 1
    16    9   10 2
    17    9   29 1
    18   10   30 1
    19   11   12 2
    20   11   31 1
    21   12   13 1
    22   12   16 1
    23   13   14 1
    24   13   17 2
    25   14   15 2
    26   15   16 1
    27   15   18 1
    28   18   19 1
    29   18   32 1
    30   19   20 1
    31   19   33 1
    32   19   34 1
    33   20   21 1
    34   20   24 2
    35   21   22 1
    36   22   23 2
    37   22   35 1
    38   23   24 1
    39   23   36 1
    40   24   37 1
@<TRIPOS>SUBSTRUCTURE
     1    LIG43    1   GROUP 1   LIG 1
@<TRIPOS>MOLECULE
51476384
   56    59    1     0     0
SMALL
USER_CHARGES


@<TRIPOS>ATOM
      1 O1         -3.6202    0.9146    0.0000 O.2       1    LIG44    0.0000
      2 C1         -3.6202    0.0896    0.0000 C.2       1    LIG44    0.0000
      3 N1         -4.3347   -0.3229    0.0000 N.am      1    LIG44    0.0000
      4 C2         -4.3347   -1.1478    0.0000 C.2       1    LIG44    0.0000
      5 N2         -3.6202   -1.5603    0.0000 N.2       1    LIG44    0.0000
      6 C3         -2.9058   -1.1478    0.0000 C.ar      1    LIG44    0.0000
      7 C4         -2.9058   -0.3229    0.0000 C.ar      1    LIG44    0.0000
      8 C5         -2.1212   -0.0679    0.0000 C.ar      1    LIG44    0.0000
      9 C6         -1.8662    0.7166    0.0000 C.ar      1    LIG44    0.0000
     10 C7         -2.4182    1.3297    0.0000 C.ar      1    LIG44    0.0000
     11 C8         -2.1633    2.1143    0.0000 C.ar      1    LIG44    0.0000
     12 C9         -1.3563    2.2859    0.0000 C.ar      1    LIG44    0.0000
     13 C10        -0.8043    1.6728    0.0000 C.ar      1    LIG44    0.0000
     14 N3          0.0026    1.8443    0.0000 N.am      1    LIG44    0.0000
     15 C11         0.5545    1.2312    0.0000 C.2       1    LIG44    0.0000
     16 C12         1.3616    1.4028    0.0000 C.2       1    LIG44    0.0000
     17 C13         1.6164    2.1873    0.0000 C.2       1    LIG44    0.0000
     18 N4          1.8714    2.9720    0.0000 N.2       1    LIG44    1.0000
     19 C14         1.9451    0.8192    0.0000 C.2       1    LIG44    0.0000
     20 C15         2.7423    1.0328    0.0000 C.ar      1    LIG44    0.0000
     21 C16         2.9561    1.8299    0.0000 C.ar      1    LIG44    0.0000
     22 C17         3.7510    2.0421    0.0000 C.ar      1    LIG44    0.0000
     23 C18         4.3347    1.4584    0.0000 C.ar      1    LIG44    0.0000
     24 C19         4.1237    0.6647    0.0000 C.ar      1    LIG44    0.0000
     25 C20         3.3283    0.4467    0.0000 C.ar      1    LIG44    0.0000
     26 O2          0.2996    0.4466    0.0000 O.2       1    LIG44    0.0000
     27 C21        -1.0592    0.8882    0.0000 C.ar      1    LIG44    0.0000
     28 N5         -1.6362   -0.7352    0.0000 N.ar      1    LIG44    0.0000
     29 N6         -2.1212   -1.4028    0.0000 N.pl3     1    LIG44    0.0000
     30 C22        -1.8662   -2.1873    0.0000 C.3       1    LIG44    0.0000
     31 C23        -1.0592   -2.3589    0.0000 C.3       1    LIG44    0.0000
     32 C24        -2.4182   -2.8005    0.0000 C.3       1    LIG44    0.0000
     33 C25        -1.6113   -2.9720    0.0000 C.3       1    LIG44    0.0000
     34 O3          3.1147   -0.3503    0.0000 O.3       1    LIG44    0.0000
     35 H1         -5.2267    0.1921    0.0000 H         1    LIG44    0.0000
     36 H2         -5.2787   -1.6928    0.0000 H         1    LIG44    0.0000
     37 H3         -3.4844    1.1031    0.0000 H         1    LIG44    0.0000
     38 H4         -2.8927    2.9243    0.0000 H         1    LIG44    0.0000
     39 H5         -1.0195    3.3226    0.0000 H         1    LIG44    0.0000
     40 H6          0.3210    2.8239    0.0000 H         1    LIG44    0.0000
     41 H7          1.6629   -0.2336    0.0000 H         1    LIG44    0.0000
     42 H8          2.1858    2.6011    0.0000 H         1    LIG44    0.0000
     43 H9          4.0336    3.0948    0.0000 H         1    LIG44    0.0000
     44 H10         5.3873    1.7415    0.0000 H         1    LIG44    0.0000
     45 H11         4.8974   -0.1031    0.0000 H         1    LIG44    0.0000
     46 H12        -0.3298    0.0782    0.0000 H         1    LIG44    0.0000
     47 H13        -0.9643   -3.4448    0.0000 H         1    LIG44    0.0000
     48 H14        -0.6391   -1.9154   -0.9027 H         1    LIG44    0.0000
     49 H15        -0.6391   -1.9154    0.9027 H         1    LIG44    0.0000
     50 H16        -1.8567   -3.7347    0.0000 H         1    LIG44    0.0000
     51 H17        -3.0188   -2.6887    0.9027 H         1    LIG44    0.0000
     52 H18        -3.0188   -2.6887   -0.9027 H         1    LIG44    0.0000
     53 H19        -0.5215   -2.9531    0.0000 H         1    LIG44    0.0000
     54 H20        -2.0085   -3.4361    0.9027 H         1    LIG44    0.0000
     55 H21        -2.0085   -3.4361   -0.9027 H         1    LIG44    0.0000
     56 H22         3.9882   -0.8962    0.0000 H         1    LIG44    0.0000
@<TRIPOS>BOND
     1    2    1 2
     2    2    3 ar
     3    3    4 2
     4    5    4 1
     5    6    5 2
     6    7    6 ar
     7    2    7 1
     8    7    8 ar
     9    9    8 1
    10   10    9 ar
    11   10   11 ar
    12   11   12 ar
    13   12   13 ar
    14   13   14 2
    15   14   15 am
    16   15   16 1
    17   16   17 2
    18   17   18 1
    19   16   19 1
    20   19   20 1
    21   21   20 ar
    22   22   21 ar
    23   23   22 ar
    24   24   23 ar
    25   25   24 ar
    26   20   25 ar
    27   15   26 2
    28   13   27 ar
    29    9   27 ar
    30    8   28 ar
    31   28   29 ar
    32    6   29 ar
    33   29   30 1
    34   30   31 1
    35   30   32 1
    36   30   33 1
    37   25   34 1
    38    3   35 1
    39    4   36 1
    40   10   37 1
    41   11   38 1
    42   12   39 1
    43   14   40 1
    44   19   41 1
    45   21   42 1
    46   22   43 1
    47   23   44 1
    48   24   45 1
    49   27   46 1
    50   31   47 1
    51   31   48 1
    52   31   49 1
    53   32   50 1
    54   32   51 1
    55   32   52 1
    56   33   53 1
    57   33   54 1
    58   33   55 1
    59   34   56 1
@<TRIPOS>SUBSTRUCTURE
     1    LIG44    1   GROUP 1   LIG 1
@<TRIPOS>MOLECULE
50579965
   46    49    1     0     0
SMALL
USER_CHARGES


@<TRIPOS>ATOM
      1 C1         14.5790   -7.1820    0.5600 C.2       1    LIG45    0.0000
      2 C2         14.5660   -8.5890    0.5630 C.2       1    LIG45    0.0000
      3 N1         15.7540   -9.2410    0.5890 N.2       1    LIG45    0.0000
      4 C3         16.9530   -8.6080    0.6110 C.2       1    LIG45    0.0000
      5 N2         16.9680   -7.2550    0.6090 N.2       1    LIG45    0.0000
      6 C4         15.8220   -6.5330    0.5850 C.2       1    LIG45    0.0000
      7 N3         18.1220   -9.2880    0.6350 N.pl3     1    LIG45    0.0000
      8 C5         18.1830  -10.6380    0.6370 C.2       1    LIG45    0.0000
      9 C6         18.2400  -11.3450   -0.5790 C.2       1    LIG45    0.0000
     10 C7         18.2400  -12.7500   -0.5780 C.2       1    LIG45    0.0000
     11 C8         18.1880  -13.4620    0.6370 C.2       1    LIG45    0.0000
     12 C9         18.1500  -12.7510    1.8520 C.2       1    LIG45    0.0000
     13 C10        18.1500  -11.3460    1.8540 C.2       1    LIG45    0.0000
     14 N4         18.1510  -14.8210    0.6360 N.pl3     1    LIG45    0.0000
     15 C11        19.1650  -15.6030    0.0050 C.3       1    LIG45    0.0000
     16 C12        18.5120  -16.4930   -1.0640 C.3       1    LIG45    0.0000
     17 O1         17.4300  -17.2200   -0.4820 O.3       1    LIG45    0.0000
     18 C13        16.4210  -16.4290    0.1460 C.3       1    LIG45    0.0000
     19 C14        17.0600  -15.5340    1.2190 C.3       1    LIG45    0.0000
     20 C15        13.3550   -9.3100    0.5360 C.2       1    LIG45    0.0000
     21 S1         11.8230   -8.5000    0.4930 S.3       1    LIG45    0.0000
     22 C16        11.0860  -10.0650    0.4780 C.2       1    LIG45    0.0000
     23 N5         11.9340  -11.0980    0.5060 N.2       1    LIG45    0.0000
     24 C17        13.2130  -10.7040    0.5390 C.2       1    LIG45    0.0000
     25 C18        14.3010  -11.6910    0.5730 C.3       1    LIG45    0.0000
     26 N6          9.7590  -10.2360    0.4410 N.pl3     1    LIG45    0.0000
     27 H1         13.7170   -6.6360    0.5420 H         1    LIG45    0.0000
     28 H2         15.8640   -5.5140    0.5840 H         1    LIG45    0.0000
     29 H3         18.9500   -8.7840    0.6460 H         1    LIG45    0.0000
     30 H4         18.2620  -10.8390   -1.4650 H         1    LIG45    0.0000
     31 H5         18.2640  -13.2550   -1.4650 H         1    LIG45    0.0000
     32 H6         18.1130  -13.2560    2.7380 H         1    LIG45    0.0000
     33 H7         18.1070  -10.8400    2.7390 H         1    LIG45    0.0000
     34 H8         19.6370  -16.2400    0.7540 H         1    LIG45    0.0000
     35 H9         19.9350  -14.9850   -0.4610 H         1    LIG45    0.0000
     36 H10        18.1370  -15.8700   -1.8780 H         1    LIG45    0.0000
     37 H11        19.2500  -17.1910   -1.4590 H         1    LIG45    0.0000
     38 H12        15.6810  -17.0830    0.6080 H         1    LIG45    0.0000
     39 H13        15.9290  -15.8050   -0.6020 H         1    LIG45    0.0000
     40 H14        17.4360  -16.1630    2.0280 H         1    LIG45    0.0000
     41 H15        16.2950  -14.8650    1.6210 H         1    LIG45    0.0000
     42 H16        13.8870  -12.7000    0.5690 H         1    LIG45    0.0000
     43 H17        14.9400  -11.5690   -0.3020 H         1    LIG45    0.0000
     44 H18        14.8950  -11.5570    1.4780 H         1    LIG45    0.0000
     45 H19         9.3890  -11.1320    0.4340 H         1    LIG45    0.0000
     46 H20         9.1700   -9.4660    0.4200 H         1    LIG45    0.0000
@<TRIPOS>BOND
     1    1    2 2
     2    1    6 1
     3    1   27 1
     4    2    3 1
     5    2   20 1
     6    3    4 2
     7    4    5 1
     8    4    7 1
     9    5    6 2
    10    6   28 1
    11    7    8 1
    12    7   29 1
    13    8    9 1
    14    8   13 2
    15    9   10 2
    16    9   30 1
    17   10   11 1
    18   10   31 1
    19   11   12 2
    20   11   14 1
    21   12   13 1
    22   12   32 1
    23   13   33 1
    24   14   15 1
    25   14   19 1
    26   15   16 1
    27   15   34 1
    28   15   35 1
    29   16   17 1
    30   16   36 1
    31   16   37 1
    32   17   18 1
    33   18   19 1
    34   18   38 1
    35   18   39 1
    36   19   40 1
    37   19   41 1
    38   20   21 1
    39   20   24 2
    40   21   22 1
    41   22   23 2
    42   22   26 1
    43   23   24 1
    44   24   25 1
    45   25   42 1
    46   25   43 1
    47   25   44 1
    48   26   45 1
    49   26   46 1
@<TRIPOS>SUBSTRUCTURE
     1    LIG45    1   GROUP 1   LIG 1
@<TRIPOS>MOLECULE
51251922
   24    25    1     0     0
SMALL
USER_CHARGES


@<TRIPOS>ATOM
      1 C1         -0.7300    4.7770    0.2820 C.2       1    LIG46    0.0000
      2 C2         -2.5210    3.4600    0.3870 C.2       1    LIG46    0.0000
      3 C3         -1.5020    2.5350    0.6410 C.2       1    LIG46    0.0000
      4 N1         -2.0640    4.7030    0.1910 N.2       1    LIG46    0.0000
      5 C4         -0.0030    6.0320    0.1070 C.3       1    LIG46    0.0000
      6 C5         -3.9590    3.1730    0.3270 C.3       1    LIG46    0.0000
      7 S1          0.0640    3.2790    0.6240 S.3       1    LIG46    0.0000
      8 C6         -1.6560    1.1550    0.8900 C.2       1    LIG46    0.0000
      9 C7         -0.5330    0.3410    1.1310 C.2       1    LIG46    0.0000
     10 C8         -0.7440   -1.0240    1.3720 C.2       1    LIG46    0.0000
     11 C9         -3.0720   -0.7390    1.1390 C.2       1    LIG46    0.0000
     12 N2         -2.8870    0.5800    0.9030 N.2       1    LIG46    0.0000
     13 N3         -2.0000   -1.5290    1.3710 N.2       1    LIG46    0.0000
     14 N4         -4.3040   -1.2550    1.1420 N.pl3     1    LIG46    0.0000
     15 H1          1.0670    5.8550    0.2210 H         1    LIG46    0.0000
     16 H2         -0.1990    6.4310   -0.8880 H         1    LIG46    0.0000
     17 H3         -0.3320    6.7500    0.8580 H         1    LIG46    0.0000
     18 H4         -4.5120    4.0890    0.1150 H         1    LIG46    0.0000
     19 H5         -4.1590    2.4500   -0.4650 H         1    LIG46    0.0000
     20 H6         -4.2960    2.7710    1.2830 H         1    LIG46    0.0000
     21 H7          0.4150    0.7180    1.1330 H         1    LIG46    0.0000
     22 H8          0.0500   -1.6390    1.5500 H         1    LIG46    0.0000
     23 H9         -4.4290   -2.2010    1.3120 H         1    LIG46    0.0000
     24 H10        -5.0680   -0.6830    0.9740 H         1    LIG46    0.0000
@<TRIPOS>BOND
     1    1    4 2
     2    1    5 1
     3    1    7 1
     4    2    3 2
     5    2    4 1
     6    2    6 1
     7    3    7 1
     8    3    8 1
     9    5   15 1
    10    5   16 1
    11    5   17 1
    12    6   18 1
    13    6   19 1
    14    6   20 1
    15    8    9 2
    16    8   12 1
    17    9   10 1
    18    9   21 1
    19   10   13 2
    20   10   22 1
    21   11   12 2
    22   11   13 1
    23   11   14 1
    24   14   23 1
    25   14   24 1
@<TRIPOS>SUBSTRUCTURE
     1    LIG46    1   GROUP 1   LIG 1
@<TRIPOS>MOLECULE
51251926
   35    37    1     0     0
SMALL
USER_CHARGES


@<TRIPOS>ATOM
      1 C1          3.2170    1.4560    0.7210 C.2       1    LIG47    0.0000
      2 N1          2.9680   -0.6550   -0.1200 N.2       1    LIG47    0.0000
      3 C2          4.2950   -0.4940   -0.1610 C.2       1    LIG47    0.0000
      4 C3          2.3400    0.4230    0.3680 C.2       1    LIG47    0.0000
      5 N2         -2.7450    1.6330   -0.4320 N.pl3     1    LIG47    0.0000
      6 S1          4.8700    1.0340    0.4110 S.3       1    LIG47    0.0000
      7 N3          1.5810    3.0330    1.5390 N.2       1    LIG47    0.0000
      8 C4          1.2110    4.2220    2.0790 C.2       1    LIG47    0.0000
      9 C5          2.8740    2.7090    1.2730 C.2       1    LIG47    0.0000
     10 C6         -2.5390    2.2930    0.7480 C.2       1    LIG47    0.0000
     11 N4         -0.0720    4.5500    2.3650 N.pl3     1    LIG47    0.0000
     12 C7         -1.3970    3.1030    0.9370 C.2       1    LIG47    0.0000
     13 N5          2.1740    5.1280    2.3660 N.2       1    LIG47    0.0000
     14 O1         -3.7770    1.0540   -0.6660 O.3       1    LIG47    0.0000
     15 O2         -1.9040    1.5890   -1.2910 O.2       1    LIG47    0.0000
     16 C8         -1.1590    3.7660    2.1590 C.2       1    LIG47    0.0000
     17 N6          5.1130   -1.4490   -0.6150 N.pl3     1    LIG47    0.0000
     18 C9          3.8730    3.6540    1.5700 C.2       1    LIG47    0.0000
     19 C10         3.4820    4.8790    2.1260 C.2       1    LIG47    0.0000
     20 C11         0.8780    0.4490    0.4780 C.3       1    LIG47    0.0000
     21 C12        -3.4620    2.1830    1.8120 C.2       1    LIG47    0.0000
     22 C13        -3.2500    2.8600    3.0240 C.2       1    LIG47    0.0000
     23 C14        -2.1040    3.6510    3.1950 C.2       1    LIG47    0.0000
     24 H1         -0.2160    5.4020    2.8030 H         1    LIG47    0.0000
     25 H2         -0.7270    3.2090    0.1750 H         1    LIG47    0.0000
     26 H3          6.0710   -1.3010   -0.6340 H         1    LIG47    0.0000
     27 H4          4.7440   -2.2900   -0.9280 H         1    LIG47    0.0000
     28 H5          4.8610    3.4670    1.3930 H         1    LIG47    0.0000
     29 H6          4.1840    5.5840    2.3530 H         1    LIG47    0.0000
     30 H7          0.4620   -0.5020    0.1440 H         1    LIG47    0.0000
     31 H8          0.5840    0.6190    1.5140 H         1    LIG47    0.0000
     32 H9          0.4830    1.2450   -0.1520 H         1    LIG47    0.0000
     33 H10        -4.2970    1.6060    1.7050 H         1    LIG47    0.0000
     34 H11        -3.9290    2.7740    3.7810 H         1    LIG47    0.0000
     35 H12        -1.9560    4.1390    4.0790 H         1    LIG47    0.0000
@<TRIPOS>BOND
     1    1    4 2
     2    1    6 1
     3    1    9 1
     4    2    3 2
     5    2    4 1
     6    3    6 1
     7    3   17 1
     8    4   20 1
     9    5   10 1
    10    5   14 1
    11    5   15 2
    12    7    8 1
    13    7    9 2
    14    8   11 1
    15    8   13 2
    16    9   18 1
    17   10   12 2
    18   10   21 1
    19   11   16 1
    20   11   24 1
    21   12   16 1
    22   12   25 1
    23   13   19 1
    24   16   23 2
    25   17   26 1
    26   17   27 1
    27   18   19 2
    28   18   28 1
    29   19   29 1
    30   20   30 1
    31   20   31 1
    32   20   32 1
    33   21   22 2
    34   21   33 1
    35   22   23 1
    36   22   34 1
    37   23   35 1
@<TRIPOS>SUBSTRUCTURE
     1    LIG47    1   GROUP 1   LIG 1
@<TRIPOS>MOLECULE
153779
   44    46    1     0     0
SMALL
USER_CHARGES


@<TRIPOS>ATOM
      1 N1          1.9290    3.1070    1.2330 N.2       1    LIG48    0.0000
      2 C1          1.2320    2.0030    0.9340 C.2       1    LIG48    0.0000
      3 C2          2.0480    0.9020    0.6470 C.2       1    LIG48    0.0000
      4 S1          3.7310    1.2960    0.7760 S.3       1    LIG48    0.0000
      5 C3          3.2500    2.9050    1.1930 C.2       1    LIG48    0.0000
      6 C4         -0.2340    2.0230    0.9360 C.3       1    LIG48    0.0000
      7 N2          4.1200    3.8940    1.4590 N.pl3     1    LIG48    0.0000
      8 C5          1.6250   -0.3940    0.2790 C.2       1    LIG48    0.0000
      9 C6          2.5690   -1.4040    0.0180 C.2       1    LIG48    0.0000
     10 C7          2.0980   -2.6690   -0.3570 C.2       1    LIG48    0.0000
     11 N3          0.7680   -2.8940   -0.4620 N.2       1    LIG48    0.0000
     12 C8         -0.1410   -1.9250   -0.2070 C.2       1    LIG48    0.0000
     13 N4          0.3060   -0.6960    0.1570 N.2       1    LIG48    0.0000
     14 N5         -1.4530   -2.2310   -0.3500 N.pl3     1    LIG48    0.0000
     15 C9         -2.4910   -1.3840   -0.1440 C.2       1    LIG48    0.0000
     16 C10        -4.6060   -0.4610   -0.9410 C.2       1    LIG48    0.0000
     17 C11        -3.5050   -1.3160   -1.1190 C.2       1    LIG48    0.0000
     18 C12        -2.6110   -0.6070    1.0270 C.2       1    LIG48    0.0000
     19 C13        -3.7090    0.2530    1.2100 C.2       1    LIG48    0.0000
     20 C14        -4.7050    0.3250    0.2200 C.2       1    LIG48    0.0000
     21 S2         -3.8310    1.2280    2.6420 S.o2      1    LIG48    0.0000
     22 O1         -5.3690    1.4760    2.9600 O.2       1    LIG48    0.0000
     23 O2         -2.7130    0.8020    3.6890 O.2       1    LIG48    0.0000
     24 C15         5.5220    3.6950    1.4210 C.3       1    LIG48    0.0000
     25 C16         6.2350    5.0090    1.7590 C.3       1    LIG48    0.0000
     26 N6         -3.3120    2.7360    2.1260 N.pl3     1    LIG48    0.0000
     27 H1         -0.6130    1.7310   -0.0440 H         1    LIG48    0.0000
     28 H2         -0.6050    1.3350    1.6950 H         1    LIG48    0.0000
     29 H3         -0.5890    3.0280    1.1670 H         1    LIG48    0.0000
     30 H4          3.7720    4.7710    1.6830 H         1    LIG48    0.0000
     31 H5          3.5730   -1.2360    0.0930 H         1    LIG48    0.0000
     32 H6          2.7580   -3.4220   -0.5550 H         1    LIG48    0.0000
     33 H7         -1.6620   -3.1210   -0.6730 H         1    LIG48    0.0000
     34 H8         -5.3340   -0.4100   -1.6540 H         1    LIG48    0.0000
     35 H9         -3.4410   -1.8840   -1.9640 H         1    LIG48    0.0000
     36 H10        -1.8940   -0.6660    1.7510 H         1    LIG48    0.0000
     37 H11        -5.5030    0.9480    0.3460 H         1    LIG48    0.0000
     38 H12         5.8120    2.9360    2.1490 H         1    LIG48    0.0000
     39 H13         5.8270    3.3730    0.4230 H         1    LIG48    0.0000
     40 H14         7.3130    4.8540    1.7340 H         1    LIG48    0.0000
     41 H15         5.9650    5.7740    1.0300 H         1    LIG48    0.0000
     42 H16         5.9440    5.3410    2.7570 H         1    LIG48    0.0000
     43 H17        -2.3860    2.9930    2.2470 H         1    LIG48    0.0000
     44 H18        -3.9430    3.3520    1.7240 H         1    LIG48    0.0000
@<TRIPOS>BOND
     1    1    2 1
     2    1    5 2
     3    2    3 2
     4    2    6 1
     5    3    4 1
     6    3    8 1
     7    4    5 1
     8    5    7 1
     9    6   27 1
    10    6   28 1
    11    6   29 1
    12    7   24 1
    13    7   30 1
    14    8    9 2
    15    8   13 1
    16    9   10 1
    17    9   31 1
    18   10   11 2
    19   10   32 1
    20   11   12 1
    21   12   13 2
    22   12   14 1
    23   14   15 1
    24   14   33 1
    25   15   17 2
    26   15   18 1
    27   16   17 1
    28   16   20 2
    29   16   34 1
    30   17   35 1
    31   18   19 2
    32   18   36 1
    33   19   20 1
    34   19   21 1
    35   20   37 1
    36   21   22 2
    37   21   23 2
    38   21   26 1
    39   24   25 1
    40   24   38 1
    41   24   39 1
    42   25   40 1
    43   25   41 1
    44   25   42 1
    45   26   43 1
    46   26   44 1
@<TRIPOS>SUBSTRUCTURE
     1    LIG48    1   GROUP 1   LIG 1
@<TRIPOS>MOLECULE
50579967
   53    56    1     0     0
SMALL
USER_CHARGES


@<TRIPOS>ATOM
      1 C1         14.0530  -24.4610    0.6760 C.2       1    LIG49    0.0000
      2 C2         14.1520  -25.8600    0.7030 C.2       1    LIG49    0.0000
      3 N1         15.3610  -26.4600    0.5890 N.2       1    LIG49    0.0000
      4 C3         16.4980  -25.7410    0.4460 C.2       1    LIG49    0.0000
      5 N2         16.4090  -24.3880    0.4210 N.2       1    LIG49    0.0000
      6 C4         15.2370  -23.7160    0.5300 C.2       1    LIG49    0.0000
      7 N3         17.6820  -26.3840    0.3300 N.pl3     1    LIG49    0.0000
      8 C5         18.8560  -25.7340    0.1630 C.2       1    LIG49    0.0000
      9 C6         19.2980  -25.3950   -1.1290 C.2       1    LIG49    0.0000
     10 C7         20.4890  -24.6700   -1.3000 C.2       1    LIG49    0.0000
     11 C8         21.2520  -24.2810   -0.1810 C.2       1    LIG49    0.0000
     12 C9         20.8150  -24.6360    1.1100 C.2       1    LIG49    0.0000
     13 C10        19.6240  -25.3610    1.2820 C.2       1    LIG49    0.0000
     14 C11        15.2150  -22.3060    0.4960 C.2       1    LIG49    0.0000
     15 S1         13.7280  -21.4230    0.6140 S.3       1    LIG49    0.0000
     16 C12        14.6640  -19.9730    0.4850 C.2       1    LIG49    0.0000
     17 N4         15.9850  -20.1600    0.3660 N.2       1    LIG49    0.0000
     18 C13        16.3210  -21.4570    0.3700 C.2       1    LIG49    0.0000
     19 C14        17.7270  -21.8680    0.2530 C.3       1    LIG49    0.0000
     20 N5         22.3870  -23.5500   -0.3450 N.pl3     1    LIG49    0.0000
     21 C15        23.4730  -24.0130   -1.1480 C.3       1    LIG49    0.0000
     22 C16        23.7430  -22.9930   -2.2670 C.3       1    LIG49    0.0000
     23 N6         23.9000  -21.6910   -1.6940 N.am      1    LIG49    0.0000
     24 C17        22.7970  -21.2360   -0.9000 C.3       1    LIG49    0.0000
     25 C18        22.5210  -22.2480    0.2240 C.3       1    LIG49    0.0000
     26 C19        25.0210  -20.9280   -1.8670 C.2       1    LIG49    0.0000
     27 O1         25.1030  -19.7980   -1.3360 O.2       1    LIG49    0.0000
     28 C20        26.1660  -21.3770   -2.6660 C.3       1    LIG49    0.0000
     29 C21        14.0520  -18.6460    0.5050 C.3       1    LIG49    0.0000
     30 H1         13.1410  -24.0110    0.7620 H         1    LIG49    0.0000
     31 H2         13.3120  -26.4280    0.8090 H         1    LIG49    0.0000
     32 H3         17.6870  -27.3530    0.3610 H         1    LIG49    0.0000
     33 H4         18.7450  -25.6590   -1.9460 H         1    LIG49    0.0000
     34 H5         20.7940  -24.4150   -2.2400 H         1    LIG49    0.0000
     35 H6         21.3600  -24.3590    1.9270 H         1    LIG49    0.0000
     36 H7         19.3090  -25.6010    2.2230 H         1    LIG49    0.0000
     37 H8         18.3660  -20.9880    0.1740 H         1    LIG49    0.0000
     38 H9         18.0200  -22.4390    1.1340 H         1    LIG49    0.0000
     39 H10        17.8600  -22.4810   -0.6390 H         1    LIG49    0.0000
     40 H11        23.2690  -24.9890   -1.5940 H         1    LIG49    0.0000
     41 H12        24.3640  -24.0980   -0.5240 H         1    LIG49    0.0000
     42 H13        24.6170  -23.3220   -2.8300 H         1    LIG49    0.0000
     43 H14        22.8870  -22.9790   -2.9440 H         1    LIG49    0.0000
     44 H15        22.9760  -20.2570   -0.4510 H         1    LIG49    0.0000
     45 H16        21.9120  -21.1640   -1.5340 H         1    LIG49    0.0000
     46 H17        21.6220  -21.9390    0.7620 H         1    LIG49    0.0000
     47 H18        23.3620  -22.2460    0.9200 H         1    LIG49    0.0000
     48 H19        26.9390  -20.6080   -2.6760 H         1    LIG49    0.0000
     49 H20        26.5780  -22.2890   -2.2340 H         1    LIG49    0.0000
     50 H21        25.8450  -21.5690   -3.6900 H         1    LIG49    0.0000
     51 H22        14.8200  -17.8780    0.4140 H         1    LIG49    0.0000
     52 H23        13.3540  -18.5580   -0.3280 H         1    LIG49    0.0000
     53 H24        13.5140  -18.5100    1.4430 H         1    LIG49    0.0000
@<TRIPOS>BOND
     1    1    2 1
     2    1    6 2
     3    1   30 1
     4    2    3 2
     5    2   31 1
     6    3    4 1
     7    4    5 2
     8    4    7 1
     9    5    6 1
    10    6   14 1
    11    7    8 1
    12    7   32 1
    13    8    9 2
    14    8   13 1
    15    9   10 1
    16    9   33 1
    17   10   11 2
    18   10   34 1
    19   11   12 1
    20   11   20 1
    21   12   13 2
    22   12   35 1
    23   13   36 1
    24   14   15 1
    25   14   18 2
    26   15   16 1
    27   16   17 2
    28   16   29 1
    29   17   18 1
    30   18   19 1
    31   19   37 1
    32   19   38 1
    33   19   39 1
    34   20   21 1
    35   20   25 1
    36   21   22 1
    37   21   40 1
    38   21   41 1
    39   22   23 1
    40   22   42 1
    41   22   43 1
    42   23   24 1
    43   23   26 1
    44   24   25 1
    45   24   44 1
    46   24   45 1
    47   25   46 1
    48   25   47 1
    49   26   27 2
    50   26   28 1
    51   28   48 1
    52   28   49 1
    53   28   50 1
    54   29   51 1
    55   29   52 1
    56   29   53 1
@<TRIPOS>SUBSTRUCTURE
     1    LIG49    1   GROUP 1   LIG 1
@<TRIPOS>MOLECULE
50579847
   51    53    1     0     0
SMALL
USER_CHARGES


@<TRIPOS>ATOM
      1 C1         -4.4370  -10.9130    0.6990 C.2       1    LIG50    0.0000
      2 C2         -4.3440  -12.3090    0.7650 C.2       1    LIG50    0.0000
      3 N1         -3.1390  -12.9160    0.6500 N.2       1    LIG50    0.0000
      4 C3         -2.0010  -12.2090    0.4630 C.2       1    LIG50    0.0000
      5 N2         -2.0830  -10.8550    0.3970 N.2       1    LIG50    0.0000
      6 C4         -3.2530  -10.1760    0.5090 C.2       1    LIG50    0.0000
      7 N3         -0.8330  -12.8870    0.3720 N.pl3     1    LIG50    0.0000
      8 C5          0.3870  -12.3250    0.1950 C.2       1    LIG50    0.0000
      9 C6          0.6520  -11.4240   -0.8520 C.2       1    LIG50    0.0000
     10 C7          1.9310  -10.8680   -1.0120 C.2       1    LIG50    0.0000
     11 C8          2.9630  -11.2000   -0.1060 C.2       1    LIG50    0.0000
     12 C9          2.7170  -12.1360    0.9280 C.2       1    LIG50    0.0000
     13 C10         1.4310  -12.6890    1.0630 C.2       1    LIG50    0.0000
     14 C11        -3.2850   -8.7670    0.4490 C.2       1    LIG50    0.0000
     15 S1         -4.7710   -7.8920    0.6260 S.3       1    LIG50    0.0000
     16 C12        -3.8560   -6.4350    0.4480 C.2       1    LIG50    0.0000
     17 N4         -2.5410   -6.6150    0.2670 N.2       1    LIG50    0.0000
     18 C13        -2.1950   -7.9090    0.2620 C.2       1    LIG50    0.0000
     19 C14        -0.7960   -8.3060    0.0650 C.3       1    LIG50    0.0000
     20 N5         -4.4420   -5.2220    0.4920 N.pl3     1    LIG50    0.0000
     21 O1          4.1930  -10.6300   -0.2370 O.3       1    LIG50    0.0000
     22 C15         4.3330   -9.2240   -0.0150 C.3       1    LIG50    0.0000
     23 O2          3.6330  -12.5650    1.8490 O.3       1    LIG50    0.0000
     24 C16         5.0000  -12.1510    1.8810 C.3       1    LIG50    0.0000
     25 O3          2.1150  -10.0030   -2.0460 O.3       1    LIG50    0.0000
     26 C17         3.0380  -10.3420   -3.0840 C.3       1    LIG50    0.0000
     27 C18        -3.7080   -4.0170    0.3440 C.3       1    LIG50    0.0000
     28 C19        -4.6590   -2.8200    0.4470 C.3       1    LIG50    0.0000
     29 H1         -5.3460  -10.4570    0.7890 H         1    LIG50    0.0000
     30 H2         -5.1840  -12.8710    0.9040 H         1    LIG50    0.0000
     31 H3         -0.8710  -13.8480    0.4910 H         1    LIG50    0.0000
     32 H4         -0.0900  -11.1710   -1.5060 H         1    LIG50    0.0000
     33 H5          1.2520  -13.3580    1.8140 H         1    LIG50    0.0000
     34 H6         -0.1680   -7.4210   -0.0350 H         1    LIG50    0.0000
     35 H7         -0.4500   -8.8890    0.9190 H         1    LIG50    0.0000
     36 H8         -0.7120   -8.9020   -0.8440 H         1    LIG50    0.0000
     37 H9         -5.4010   -5.1740    0.6280 H         1    LIG50    0.0000
     38 H10         5.3850   -8.9590   -0.1080 H         1    LIG50    0.0000
     39 H11         3.7610   -8.6550   -0.7480 H         1    LIG50    0.0000
     40 H12         3.9920   -8.9660    0.9900 H         1    LIG50    0.0000
     41 H13         5.5060  -12.6720    2.6930 H         1    LIG50    0.0000
     42 H14         5.4940  -12.4020    0.9410 H         1    LIG50    0.0000
     43 H15         5.0660  -11.0770    2.0600 H         1    LIG50    0.0000
     44 H16         3.0190   -9.5570   -3.8400 H         1    LIG50    0.0000
     45 H17         4.0520  -10.4260   -2.6930 H         1    LIG50    0.0000
     46 H18         2.7500  -11.2860   -3.5500 H         1    LIG50    0.0000
     47 H19        -2.9550   -3.9430    1.1300 H         1    LIG50    0.0000
     48 H20        -3.2160   -3.9990   -0.6300 H         1    LIG50    0.0000
     49 H21        -4.0910   -1.8960    0.3310 H         1    LIG50    0.0000
     50 H22        -5.4130   -2.8780   -0.3380 H         1    LIG50    0.0000
     51 H23        -5.1480   -2.8190    1.4220 H         1    LIG50    0.0000
@<TRIPOS>BOND
     1    1    2 2
     2    1    6 1
     3    1   29 1
     4    2    3 1
     5    2   30 1
     6    3    4 2
     7    4    5 1
     8    4    7 1
     9    5    6 2
    10    6   14 1
    11    7    8 1
    12    7   31 1
    13    8    9 2
    14    8   13 1
    15    9   10 1
    16    9   32 1
    17   10   11 2
    18   10   25 1
    19   11   12 1
    20   11   21 1
    21   12   13 2
    22   12   23 1
    23   13   33 1
    24   14   15 1
    25   14   18 2
    26   15   16 1
    27   16   17 2
    28   16   20 1
    29   17   18 1
    30   18   19 1
    31   19   34 1
    32   19   35 1
    33   19   36 1
    34   20   27 1
    35   20   37 1
    36   21   22 1
    37   22   38 1
    38   22   39 1
    39   22   40 1
    40   23   24 1
    41   24   41 1
    42   24   42 1
    43   24   43 1
    44   25   26 1
    45   26   44 1
    46   26   45 1
    47   26   46 1
    48   27   28 1
    49   27   47 1
    50   27   48 1
    51   28   49 1
    52   28   50 1
    53   28   51 1
@<TRIPOS>SUBSTRUCTURE
     1    LIG50    1   GROUP 1   LIG 1
@<TRIPOS>MOLECULE
51476383
   56    59    1     0     0
SMALL
USER_CHARGES


@<TRIPOS>ATOM
      1 O1         -4.0188    0.9146    0.0000 O.2       1    LIG51    0.0000
      2 C1         -4.0188    0.0896    0.0000 C.2       1    LIG51    0.0000
      3 N1         -4.7333   -0.3229    0.0000 N.am      1    LIG51    0.0000
      4 C2         -4.7333   -1.1478    0.0000 C.2       1    LIG51    0.0000
      5 N2         -4.0188   -1.5603    0.0000 N.2       1    LIG51    0.0000
      6 C3         -3.3044   -1.1478    0.0000 C.ar      1    LIG51    0.0000
      7 C4         -3.3044   -0.3229    0.0000 C.ar      1    LIG51    0.0000
      8 C5         -2.5197   -0.0679    0.0000 C.ar      1    LIG51    0.0000
      9 C6         -2.2648    0.7166    0.0000 C.ar      1    LIG51    0.0000
     10 C7         -2.8168    1.3297    0.0000 C.ar      1    LIG51    0.0000
     11 C8         -2.5618    2.1143    0.0000 C.ar      1    LIG51    0.0000
     12 C9         -1.7549    2.2859    0.0000 C.ar      1    LIG51    0.0000
     13 C10        -1.2028    1.6728    0.0000 C.ar      1    LIG51    0.0000
     14 N3         -0.3958    1.8443    0.0000 N.am      1    LIG51    0.0000
     15 C11         0.1561    1.2312    0.0000 C.2       1    LIG51    0.0000
     16 C12         0.9630    1.4028    0.0000 C.2       1    LIG51    0.0000
     17 C13         1.2179    2.1873    0.0000 C.2       1    LIG51    0.0000
     18 N4          1.4729    2.9720    0.0000 N.2       1    LIG51    1.0000
     19 C14         1.5466    0.8192    0.0000 C.2       1    LIG51    0.0000
     20 C15         2.3437    1.0328    0.0000 C.ar      1    LIG51    0.0000
     21 C16         2.5575    1.8300    0.0000 C.ar      1    LIG51    0.0000
     22 C17         3.3525    2.0421    0.0000 C.ar      1    LIG51    0.0000
     23 C18         3.9361    1.4584    0.0000 C.ar      1    LIG51    0.0000
     24 C19         3.7251    0.6649    0.0000 C.ar      1    LIG51    0.0000
     25 C20         2.9297    0.4468    0.0000 C.ar      1    LIG51    0.0000
     26 O2         -0.0988    0.4466    0.0000 O.2       1    LIG51    0.0000
     27 C21        -1.4578    0.8882    0.0000 C.ar      1    LIG51    0.0000
     28 N5         -2.0348   -0.7352    0.0000 N.ar      1    LIG51    0.0000
     29 N6         -2.5197   -1.4028    0.0000 N.pl3     1    LIG51    0.0000
     30 C22        -2.2648   -2.1873    0.0000 C.3       1    LIG51    0.0000
     31 C23        -1.4578   -2.3589    0.0000 C.3       1    LIG51    0.0000
     32 C24        -2.8168   -2.8005    0.0000 C.3       1    LIG51    0.0000
     33 C25        -2.0097   -2.9720    0.0000 C.3       1    LIG51    0.0000
     34 O3          4.7333    1.6720    0.0000 O.3       1    LIG51    0.0000
     35 H1         -5.6253    0.1921    0.0000 H         1    LIG51    0.0000
     36 H2         -5.6773   -1.6928    0.0000 H         1    LIG51    0.0000
     37 H3         -3.8830    1.1031    0.0000 H         1    LIG51    0.0000
     38 H4         -3.2912    2.9243    0.0000 H         1    LIG51    0.0000
     39 H5         -1.4182    3.3226    0.0000 H         1    LIG51    0.0000
     40 H6         -0.0774    2.8239    0.0000 H         1    LIG51    0.0000
     41 H7          1.2645   -0.2337    0.0000 H         1    LIG51    0.0000
     42 H8          1.7873    2.6012    0.0000 H         1    LIG51    0.0000
     43 H9          3.6352    3.0948    0.0000 H         1    LIG51    0.0000
     44 H10         4.4988   -0.1029    0.0000 H         1    LIG51    0.0000
     45 H11         2.6507   -0.6069    0.0000 H         1    LIG51    0.0000
     46 H12        -0.7284    0.0782    0.0000 H         1    LIG51    0.0000
     47 H13        -1.3629   -3.4448    0.0000 H         1    LIG51    0.0000
     48 H14        -1.0377   -1.9154   -0.9027 H         1    LIG51    0.0000
     49 H15        -1.0377   -1.9154    0.9027 H         1    LIG51    0.0000
     50 H16        -2.2553   -3.7347    0.0000 H         1    LIG51    0.0000
     51 H17        -3.4174   -2.6887    0.9027 H         1    LIG51    0.0000
     52 H18        -3.4174   -2.6887   -0.9027 H         1    LIG51    0.0000
     53 H19        -2.9025   -3.5973    0.0000 H         1    LIG51    0.0000
     54 H20        -1.4155   -3.1139   -0.9027 H         1    LIG51    0.0000
     55 H21        -1.4155   -3.1139    0.9027 H         1    LIG51    0.0000
     56 H22         4.7693    2.7014    0.0000 H         1    LIG51    0.0000
@<TRIPOS>BOND
     1    2    1 2
     2    2    3 ar
     3    3    4 2
     4    5    4 1
     5    6    5 2
     6    7    6 ar
     7    2    7 1
     8    7    8 ar
     9    9    8 1
    10   10    9 ar
    11   10   11 ar
    12   11   12 ar
    13   12   13 ar
    14   13   14 2
    15   14   15 am
    16   15   16 1
    17   16   17 2
    18   17   18 1
    19   16   19 1
    20   19   20 2
    21   21   20 ar
    22   22   21 ar
    23   23   22 ar
    24   24   23 ar
    25   25   24 ar
    26   20   25 ar
    27   15   26 2
    28   13   27 ar
    29    9   27 ar
    30    8   28 ar
    31   28   29 ar
    32    6   29 ar
    33   29   30 1
    34   30   31 1
    35   30   32 1
    36   30   33 1
    37   23   34 1
    38    3   35 1
    39    4   36 1
    40   10   37 1
    41   11   38 1
    42   12   39 1
    43   14   40 1
    44   19   41 1
    45   21   42 1
    46   22   43 1
    47   24   44 1
    48   25   45 1
    49   27   46 1
    50   31   47 1
    51   31   48 1
    52   31   49 1
    53   32   50 1
    54   32   51 1
    55   32   52 1
    56   33   53 1
    57   33   54 1
    58   33   55 1
    59   34   56 1
@<TRIPOS>SUBSTRUCTURE
     1    LIG51    1   GROUP 1   LIG 1
@<TRIPOS>MOLECULE
50579842
   52    55    1     0     0
SMALL
USER_CHARGES


@<TRIPOS>ATOM
      1 C1         -5.3350  -24.0280    0.6780 C.2       1    LIG52    0.0000
      2 C2         -5.2350  -25.4260    0.7040 C.2       1    LIG52    0.0000
      3 N1         -4.0260  -26.0260    0.5890 N.2       1    LIG52    0.0000
      4 C3         -2.8900  -25.3060    0.4460 C.2       1    LIG52    0.0000
      5 N2         -2.9790  -23.9530    0.4220 N.2       1    LIG52    0.0000
      6 C4         -4.1510  -23.2820    0.5320 C.2       1    LIG52    0.0000
      7 N3         -1.7060  -25.9500    0.3310 N.pl3     1    LIG52    0.0000
      8 C5         -0.5310  -25.3020    0.1670 C.2       1    LIG52    0.0000
      9 C6         -0.0860  -24.9640   -1.1240 C.2       1    LIG52    0.0000
     10 C7          1.1080  -24.2420   -1.2920 C.2       1    LIG52    0.0000
     11 C8          1.8710  -23.8560   -0.1720 C.2       1    LIG52    0.0000
     12 C9          1.4310  -24.2120    1.1180 C.2       1    LIG52    0.0000
     13 C10         0.2370  -24.9340    1.2880 C.2       1    LIG52    0.0000
     14 C11        -4.1750  -21.8720    0.4990 C.2       1    LIG52    0.0000
     15 S1         -5.6630  -20.9910    0.6140 S.3       1    LIG52    0.0000
     16 C12        -4.7250  -19.5440    0.4820 C.2       1    LIG52    0.0000
     17 N4         -3.4050  -19.7250    0.3670 N.2       1    LIG52    0.0000
     18 C13        -3.0680  -21.0220    0.3750 C.2       1    LIG52    0.0000
     19 C14        -1.6620  -21.4320    0.2650 C.3       1    LIG52    0.0000
     20 N5         -5.2760  -18.3250    0.4930 N.pl3     1    LIG52    0.0000
     21 N6          3.0070  -23.1290   -0.3340 N.pl3     1    LIG52    0.0000
     22 C15         4.0920  -23.5920   -1.1400 C.3       1    LIG52    0.0000
     23 C16         4.3630  -22.5690   -2.2560 C.3       1    LIG52    0.0000
     24 N7          4.5220  -21.2670   -1.6790 N.am      1    LIG52    0.0000
     25 C17         3.4200  -20.8140   -0.8840 C.3       1    LIG52    0.0000
     26 C18         3.1460  -21.8280    0.2390 C.3       1    LIG52    0.0000
     27 C19         5.6430  -20.5060   -1.8510 C.2       1    LIG52    0.0000
     28 O1          5.7280  -19.3780   -1.3160 O.2       1    LIG52    0.0000
     29 C20         6.7860  -20.9530   -2.6550 C.3       1    LIG52    0.0000
     30 H1         -6.2470  -23.5780    0.7660 H         1    LIG52    0.0000
     31 H2         -6.0760  -25.9950    0.8090 H         1    LIG52    0.0000
     32 H3         -1.7030  -26.9190    0.3610 H         1    LIG52    0.0000
     33 H4         -0.6380  -25.2260   -1.9420 H         1    LIG52    0.0000
     34 H5          1.4150  -23.9880   -2.2310 H         1    LIG52    0.0000
     35 H6          1.9760  -23.9390    1.9370 H         1    LIG52    0.0000
     36 H7         -0.0800  -25.1750    2.2280 H         1    LIG52    0.0000
     37 H8         -1.0230  -20.5520    0.1890 H         1    LIG52    0.0000
     38 H9         -1.3730  -22.0020    1.1480 H         1    LIG52    0.0000
     39 H10        -1.5230  -22.0460   -0.6260 H         1    LIG52    0.0000
     40 H11        -4.7110  -17.5400    0.4160 H         1    LIG52    0.0000
     41 H12        -6.2360  -18.2260    0.5790 H         1    LIG52    0.0000
     42 H13         3.8840  -24.5650   -1.5890 H         1    LIG52    0.0000
     43 H14         4.9830  -23.6810   -0.5170 H         1    LIG52    0.0000
     44 H15         5.2370  -22.8970   -2.8190 H         1    LIG52    0.0000
     45 H16         3.5080  -22.5520   -2.9330 H         1    LIG52    0.0000
     46 H17         3.6000  -19.8360   -0.4330 H         1    LIG52    0.0000
     47 H18         2.5340  -20.7410   -1.5170 H         1    LIG52    0.0000
     48 H19         2.2490  -21.5190    0.7800 H         1    LIG52    0.0000
     49 H20         3.9890  -21.8300    0.9310 H         1    LIG52    0.0000
     50 H21         7.5610  -20.1860   -2.6630 H         1    LIG52    0.0000
     51 H22         7.1970  -21.8680   -2.2270 H         1    LIG52    0.0000
     52 H23         6.4610  -21.1410   -3.6780 H         1    LIG52    0.0000
@<TRIPOS>BOND
     1    1    2 1
     2    1    6 2
     3    1   30 1
     4    2    3 2
     5    2   31 1
     6    3    4 1
     7    4    5 2
     8    4    7 1
     9    5    6 1
    10    6   14 1
    11    7    8 1
    12    7   32 1
    13    8    9 2
    14    8   13 1
    15    9   10 1
    16    9   33 1
    17   10   11 2
    18   10   34 1
    19   11   12 1
    20   11   21 1
    21   12   13 2
    22   12   35 1
    23   13   36 1
    24   14   15 1
    25   14   18 2
    26   15   16 1
    27   16   17 2
    28   16   20 1
    29   17   18 1
    30   18   19 1
    31   19   37 1
    32   19   38 1
    33   19   39 1
    34   20   40 1
    35   20   41 1
    36   21   22 1
    37   21   26 1
    38   22   23 1
    39   22   42 1
    40   22   43 1
    41   23   24 1
    42   23   44 1
    43   23   45 1
    44   24   25 1
    45   24   27 1
    46   25   26 1
    47   25   46 1
    48   25   47 1
    49   26   48 1
    50   26   49 1
    51   27   28 2
    52   27   29 1
    53   29   50 1
    54   29   51 1
    55   29   52 1
@<TRIPOS>SUBSTRUCTURE
     1    LIG52    1   GROUP 1   LIG 1
@<TRIPOS>MOLECULE
184849
   32    35    1     0     0
SMALL
USER_CHARGES


@<TRIPOS>ATOM
      1 C1         -1.6860    1.7190    0.4100 C.2       1    LIG53    0.0000
      2 C2         -2.6170    4.4080    0.4170 C.2       1    LIG53    0.0000
      3 C3         -3.5270    3.3350    0.3230 C.2       1    LIG53    0.0000
      4 C4         -3.0650    2.0000    0.3190 C.2       1    LIG53    0.0000
      5 C5         -1.2460    4.1130    0.5070 C.2       1    LIG53    0.0000
      6 C6         -0.1310    4.9380    0.6080 C.2       1    LIG53    0.0000
      7 C7         -0.7930    2.7970    0.5040 C.2       1    LIG53    0.0000
      8 C8          0.9800    4.0830    0.6680 C.2       1    LIG53    0.0000
      9 N1          0.5430    2.8080    0.6000 N.pl3     1    LIG53    0.0000
     10 C9          2.3990    4.4860    0.7690 C.3       1    LIG53    0.0000
     11 C10         3.2640    3.4340    1.3390 C.2       1    LIG53    0.0000
     12 O1          3.1360    2.9650    2.4910 O.2       1    LIG53    0.0000
     13 N2          4.2140    3.0270    0.4820 N.am      1    LIG53    0.0000
     14 C11         3.0440    4.6120   -0.5460 C.2       1    LIG53    0.0000
     15 C12         4.1080    3.7160   -0.6540 C.2       1    LIG53    0.0000
     16 C13         4.8880    3.6400   -1.8180 C.2       1    LIG53    0.0000
     17 C14         4.5760    4.4990   -2.8900 C.2       1    LIG53    0.0000
     18 C15         3.5070    5.4140   -2.7860 C.2       1    LIG53    0.0000
     19 C16         2.7340    5.4780   -1.6100 C.2       1    LIG53    0.0000
     20 N3         -0.1790    6.2530    0.6330 N.2       1    LIG53    0.0000
     21 O2          0.7570    6.9440    0.7130 O.2       1    LIG53    0.0000
     22 H1         -1.3470    0.7570    0.4070 H         1    LIG53    0.0000
     23 H2         -2.9480    5.3730    0.4200 H         1    LIG53    0.0000
     24 H3         -4.5270    3.5240    0.2570 H         1    LIG53    0.0000
     25 H4         -3.7340    1.2330    0.2500 H         1    LIG53    0.0000
     26 H5          1.1090    2.0210    0.6190 H         1    LIG53    0.0000
     27 H6          2.5120    5.4010    1.3500 H         1    LIG53    0.0000
     28 H7          4.8810    2.3480    0.6680 H         1    LIG53    0.0000
     29 H8          5.6630    2.9800   -1.8860 H         1    LIG53    0.0000
     30 H9          5.1290    4.4610   -3.7470 H         1    LIG53    0.0000
     31 H10         3.2920    6.0330   -3.5680 H         1    LIG53    0.0000
     32 H11         1.9610    6.1400   -1.5330 H         1    LIG53    0.0000
@<TRIPOS>BOND
     1    1    4 1
     2    1    7 2
     3    1   22 1
     4    2    3 1
     5    2    5 2
     6    2   23 1
     7    3    4 2
     8    3   24 1
     9    4   25 1
    10    5    6 1
    11    5    7 1
    12    6    8 2
    13    6   20 1
    14    7    9 1
    15    8    9 1
    16    8   10 1
    17    9   26 1
    18   10   11 1
    19   10   14 1
    20   10   27 1
    21   11   12 2
    22   11   13 1
    23   13   15 1
    24   13   28 1
    25   14   15 1
    26   14   19 2
    27   15   16 2
    28   16   17 1
    29   16   29 1
    30   17   18 2
    31   17   30 1
    32   18   19 1
    33   18   31 1
    34   19   32 1
    35   20   21 2
@<TRIPOS>SUBSTRUCTURE
     1    LIG53    1   GROUP 1   LIG 1
@<TRIPOS>MOLECULE
184850
   31    34    1     0     0
SMALL
USER_CHARGES


@<TRIPOS>ATOM
      1 C1          0.9720    3.0260   -0.4480 C.2       1    LIG54    0.0000
      2 C2          1.2560    1.6310   -0.0920 C.3       1    LIG54    0.0000
      3 O1          1.3420    3.4510   -1.5640 O.2       1    LIG54    0.0000
      4 N1          0.3490    3.9000    0.3770 N.am      1    LIG54    0.0000
      5 C3         -0.7720    2.4680    2.0690 C.2       1    LIG54    0.0000
      6 C4         -0.1470    3.6690    1.6270 C.2       1    LIG54    0.0000
      7 C5         -0.0970    4.7800    2.4940 C.2       1    LIG54    0.0000
      8 C6         -0.6450    4.7140    3.7840 C.2       1    LIG54    0.0000
      9 C7         -1.2670    3.5360    4.2190 C.2       1    LIG54    0.0000
     10 C8         -1.3350    2.4250    3.3650 C.2       1    LIG54    0.0000
     11 C9          0.0170    0.9250    0.2570 C.2       1    LIG54    0.0000
     12 C10        -0.8750    1.3120    1.2610 C.2       1    LIG54    0.0000
     13 N2         -1.8490    0.3820    1.3430 N.pl3     1    LIG54    0.0000
     14 C11        -0.4760   -0.2610   -0.2790 C.2       1    LIG54    0.0000
     15 C12        -1.6380   -0.5690    0.4220 C.2       1    LIG54    0.0000
     16 C13        -0.7380   -2.2600   -1.6160 C.2       1    LIG54    0.0000
     17 C14        -0.0010   -1.0970   -1.3040 C.2       1    LIG54    0.0000
     18 C15        -2.3800   -1.7220    0.1260 C.2       1    LIG54    0.0000
     19 C16        -1.9210   -2.5690   -0.9030 C.2       1    LIG54    0.0000
     20 Br1        -0.1480   -3.3930   -2.9690 Br        1    LIG54    0.0000
     21 H1          1.9260    1.6190    0.7680 H         1    LIG54    0.0000
     22 H2          1.7560    1.1360   -0.9260 H         1    LIG54    0.0000
     23 H3          0.2750    4.8080    0.0460 H         1    LIG54    0.0000
     24 H4          0.3370    5.6500    2.1830 H         1    LIG54    0.0000
     25 H5         -0.5980    5.5260    4.4010 H         1    LIG54    0.0000
     26 H6         -1.6710    3.4880    5.1540 H         1    LIG54    0.0000
     27 H7         -1.7920    1.5760    3.7050 H         1    LIG54    0.0000
     28 H8         -2.5940    0.4050    1.9630 H         1    LIG54    0.0000
     29 H9          0.8550   -0.8630   -1.8090 H         1    LIG54    0.0000
     30 H10        -3.2320   -1.9430    0.6430 H         1    LIG54    0.0000
     31 H11        -2.4530   -3.4100   -1.1290 H         1    LIG54    0.0000
@<TRIPOS>BOND
     1    1    2 1
     2    1    3 2
     3    1    4 1
     4    2   11 1
     5    2   21 1
     6    2   22 1
     7    4    6 1
     8    4   23 1
     9    5    6 1
    10    5   10 2
    11    5   12 1
    12    6    7 2
    13    7    8 1
    14    7   24 1
    15    8    9 2
    16    8   25 1
    17    9   10 1
    18    9   26 1
    19   10   27 1
    20   11   12 2
    21   11   14 1
    22   12   13 1
    23   13   15 1
    24   13   28 1
    25   14   15 1
    26   14   17 2
    27   15   18 2
    28   16   17 1
    29   16   19 2
    30   16   20 1
    31   17   29 1
    32   18   19 1
    33   18   30 1
    34   19   31 1
@<TRIPOS>SUBSTRUCTURE
     1    LIG54    1   GROUP 1   LIG 1
@<TRIPOS>MOLECULE
50077217
   57    60    1     0     0
SMALL
USER_CHARGES


@<TRIPOS>ATOM
      1 C1         22.2990   -2.8420    0.4080 C.2       1    LIG55    0.0000
      2 C2         22.5550   -4.0190   -0.3280 C.2       1    LIG55    0.0000
      3 C3         23.2740   -5.0790    0.2440 C.2       1    LIG55    0.0000
      4 C4         22.7670   -2.7580    1.7390 C.2       1    LIG55    0.0000
      5 C5         23.4850   -3.8190    2.3390 C.2       1    LIG55    0.0000
      6 C6         23.7390   -4.9810    1.5650 C.2       1    LIG55    0.0000
      7 N1         24.4390   -6.0110    2.0970 N.2       1    LIG55    0.0000
      8 C7         24.9320   -6.0120    3.3610 C.2       1    LIG55    0.0000
      9 C8         24.7040   -4.8820    4.1700 C.2       1    LIG55    0.0000
     10 C9         23.9770   -3.7820    3.6700 C.2       1    LIG55    0.0000
     11 C10        21.5580   -1.7730   -0.1660 C.2       1    LIG55    0.0000
     12 C11        23.7770   -2.7110    4.5160 C.2       1    LIG55    0.0000
     13 O1         22.6670   -2.2330    4.6880 O.2       1    LIG55    0.0000
     14 O2         24.7760   -2.2100    5.2200 O.3       1    LIG55    0.0000
     15 C12        25.6490   -7.1360    3.8190 C.2       1    LIG55    0.0000
     16 N2         25.9150   -8.1480    2.9620 N.am      1    LIG55    0.0000
     17 O3         26.0530   -7.2080    5.0030 O.2       1    LIG55    0.0000
     18 C13        26.6300   -9.3280    3.3120 C.3       1    LIG55    0.0000
     19 C14        26.9610  -10.0260    2.0930 C.2       1    LIG55    0.0000
     20 C15        25.7790  -10.2230    4.2470 C.3       1    LIG55    0.0000
     21 C16        26.4690  -11.4710    4.6400 C.2       1    LIG55    0.0000
     22 O4         25.9760  -10.4580    1.3050 O.3       1    LIG55    0.0000
     23 O5         28.1350  -10.2180    1.8090 O.2       1    LIG55    0.0000
     24 C17        26.2910  -11.2040    0.1290 C.3       1    LIG55    0.0000
     25 C18        25.9750  -12.7250    4.2270 C.2       1    LIG55    0.0000
     26 C19        26.6380  -13.9080    4.5970 C.2       1    LIG55    0.0000
     27 C20        27.8000  -13.8470    5.3850 C.2       1    LIG55    0.0000
     28 C21        28.2970  -12.6000    5.8030 C.2       1    LIG55    0.0000
     29 C22        27.6330  -11.4180    5.4330 C.2       1    LIG55    0.0000
     30 O6         28.4320  -14.9880    5.7380 O.3       1    LIG55    0.0000
     31 C23        20.3670   -1.3700    0.4840 C.2       1    LIG55    0.0000
     32 C24        19.5720   -0.3360   -0.0340 C.2       1    LIG55    0.0000
     33 C25        19.9570    0.3180   -1.2130 C.2       1    LIG55    0.0000
     34 C26        21.1390   -0.0580   -1.8680 C.2       1    LIG55    0.0000
     35 C27        21.9460   -1.0940   -1.3550 C.2       1    LIG55    0.0000
     36 Cl1        23.3840   -1.4260   -2.1980 Cl        1    LIG55    0.0000
     37 H1         22.2150   -4.1130   -1.2870 H         1    LIG55    0.0000
     38 H2         23.4560   -5.9220   -0.3030 H         1    LIG55    0.0000
     39 H3         22.5840   -1.9050    2.2710 H         1    LIG55    0.0000
     40 H4         25.0640   -4.8610    5.1270 H         1    LIG55    0.0000
     41 H5         24.5120   -1.4680    5.8020 H         1    LIG55    0.0000
     42 H6         25.6150   -8.0490    2.0440 H         1    LIG55    0.0000
     43 H7         27.5560   -9.0440    3.8190 H         1    LIG55    0.0000
     44 H8         25.5370   -9.6690    5.1540 H         1    LIG55    0.0000
     45 H9         24.8400  -10.4550    3.7390 H         1    LIG55    0.0000
     46 H10        25.3660  -11.4710   -0.3810 H         1    LIG55    0.0000
     47 H11        26.9080  -10.6030   -0.5410 H         1    LIG55    0.0000
     48 H12        26.8270  -12.1150    0.3980 H         1    LIG55    0.0000
     49 H13        25.1350  -12.7800    3.6510 H         1    LIG55    0.0000
     50 H14        26.2760  -14.8120    4.2920 H         1    LIG55    0.0000
     51 H15        29.1390  -12.5510    6.3770 H         1    LIG55    0.0000
     52 H16        28.0000  -10.5170    5.7410 H         1    LIG55    0.0000
     53 H17        29.2330  -14.8580    6.2870 H         1    LIG55    0.0000
     54 H18        20.0620   -1.8370    1.3400 H         1    LIG55    0.0000
     55 H19        18.7140   -0.0620    0.4450 H         1    LIG55    0.0000
     56 H20        19.3800    1.0700   -1.5910 H         1    LIG55    0.0000
     57 H21        21.4070    0.4370   -2.7200 H         1    LIG55    0.0000
@<TRIPOS>BOND
     1    1    2 2
     2    1    4 1
     3    1   11 1
     4    2    3 1
     5    2   37 1
     6    3    6 2
     7    3   38 1
     8    4    5 2
     9    4   39 1
    10    5    6 1
    11    5   10 1
    12    6    7 1
    13    7    8 2
    14    8    9 1
    15    8   15 1
    16    9   10 2
    17    9   40 1
    18   10   12 1
    19   11   31 2
    20   11   35 1
    21   12   13 2
    22   12   14 1
    23   14   41 1
    24   15   16 1
    25   15   17 2
    26   18   16 1
    27   16   42 1
    28   18   19 1
    29   18   20 1
    30   18   43 1
    31   19   22 1
    32   19   23 2
    33   20   21 1
    34   20   44 1
    35   20   45 1
    36   21   25 2
    37   21   29 1
    38   22   24 1
    39   24   46 1
    40   24   47 1
    41   24   48 1
    42   25   26 1
    43   25   49 1
    44   26   27 2
    45   26   50 1
    46   27   28 1
    47   27   30 1
    48   28   29 2
    49   28   51 1
    50   29   52 1
    51   30   53 1
    52   31   32 1
    53   31   54 1
    54   32   33 2
    55   32   55 1
    56   33   34 1
    57   33   56 1
    58   34   35 2
    59   34   57 1
    60   35   36 1
@<TRIPOS>SUBSTRUCTURE
     1    LIG55    1   GROUP 1   LIG 1
@<TRIPOS>MOLECULE
50077219
   57    60    1     0     0
SMALL
USER_CHARGES


@<TRIPOS>ATOM
      1 C1          3.8550   -9.5170    0.4600 C.2       1    LIG56    0.0000
      2 C2          3.8780  -10.7430   -0.2460 C.2       1    LIG56    0.0000
      3 C3          4.1270  -11.9570    0.4120 C.2       1    LIG56    0.0000
      4 C4          4.0860   -9.5550    1.8560 C.2       1    LIG56    0.0000
      5 C5          4.3300  -10.7660    2.5450 C.2       1    LIG56    0.0000
      6 C6          4.3560  -11.9700    1.7960 C.2       1    LIG56    0.0000
      7 N1          4.6100  -13.1490    2.4130 N.2       1    LIG56    0.0000
      8 C7          4.8530  -13.2650    3.7430 C.2       1    LIG56    0.0000
      9 C8          4.8360  -12.0980    4.5310 C.2       1    LIG56    0.0000
     10 C9          4.5680  -10.8440    3.9420 C.2       1    LIG56    0.0000
     11 C10         3.6090   -8.2820   -0.2160 C.2       1    LIG56    0.0000
     12 C11         4.5450   -9.7420    4.7720 C.2       1    LIG56    0.0000
     13 O1          3.6200   -8.9460    4.7500 O.2       1    LIG56    0.0000
     14 O2          5.4950   -9.5520    5.6710 O.3       1    LIG56    0.0000
     15 C12         5.1120  -14.5390    4.2890 C.2       1    LIG56    0.0000
     16 N2          5.1090  -15.6200    3.4750 N.am      1    LIG56    0.0000
     17 O3          5.3330  -14.6830    5.5140 O.2       1    LIG56    0.0000
     18 C13         5.3420  -16.9610    3.9050 C.3       1    LIG56    0.0000
     19 C14         6.4460  -17.5020    3.1520 C.2       1    LIG56    0.0000
     20 C15         4.0770  -17.8160    3.6670 C.3       1    LIG56    0.0000
     21 C16         2.9170  -17.3400    4.4500 C.2       1    LIG56    0.0000
     22 O4          6.3740  -17.5250    1.8210 O.3       1    LIG56    0.0000
     23 O5          7.4280  -17.9280    3.7440 O.2       1    LIG56    0.0000
     24 C17         7.4710  -18.0370    1.0630 C.3       1    LIG56    0.0000
     25 C18         2.9410  -17.3920    5.8580 C.2       1    LIG56    0.0000
     26 C19         1.8440  -16.9340    6.6080 C.2       1    LIG56    0.0000
     27 C20         0.7110  -16.4210    5.9550 C.2       1    LIG56    0.0000
     28 C21         0.6770  -16.3670    4.5510 C.2       1    LIG56    0.0000
     29 C22         1.7750  -16.8260    3.8020 C.2       1    LIG56    0.0000
     30 O6         -0.3400  -15.9820    6.6810 O.3       1    LIG56    0.0000
     31 C23         2.8910   -7.2340    0.4080 C.2       1    LIG56    0.0000
     32 C24         2.6480   -6.0190   -0.2550 C.2       1    LIG56    0.0000
     33 C25         3.1210   -5.8220   -1.5640 C.2       1    LIG56    0.0000
     34 C26         3.8370   -6.8490   -2.2020 C.2       1    LIG56    0.0000
     35 C27         4.0770   -8.0620   -1.5350 C.2       1    LIG56    0.0000
     36 Cl1         2.8290   -4.3620   -2.3660 Cl        1    LIG56    0.0000
     37 H1          3.7050  -10.7650   -1.2520 H         1    LIG56    0.0000
     38 H2          4.1420  -12.8280   -0.1180 H         1    LIG56    0.0000
     39 H3          4.0930   -8.6780    2.3790 H         1    LIG56    0.0000
     40 H4          5.0130  -12.1600    5.5360 H         1    LIG56    0.0000
     41 H5          5.3570   -8.7550    6.2230 H         1    LIG56    0.0000
     42 H6          4.9260  -15.4710    2.5340 H         1    LIG56    0.0000
     43 H7          5.5990  -16.9990    4.9660 H         1    LIG56    0.0000
     44 H8          3.8420  -17.8020    2.6000 H         1    LIG56    0.0000
     45 H9          4.2860  -18.8500    3.9500 H         1    LIG56    0.0000
     46 H10         7.2370  -17.9630    0.0010 H         1    LIG56    0.0000
     47 H11         8.3720  -17.4570    1.2710 H         1    LIG56    0.0000
     48 H12         7.6460  -19.0830    1.3180 H         1    LIG56    0.0000
     49 H13         3.7610  -17.7620    6.3420 H         1    LIG56    0.0000
     50 H14         1.8730  -16.9730    7.6270 H         1    LIG56    0.0000
     51 H15        -0.1440  -15.9950    4.0720 H         1    LIG56    0.0000
     52 H16         1.7420  -16.7800    2.7830 H         1    LIG56    0.0000
     53 H17        -1.0890  -15.6380    6.1510 H         1    LIG56    0.0000
     54 H18         2.5240   -7.3500    1.3540 H         1    LIG56    0.0000
     55 H19         2.1240   -5.2830    0.2230 H         1    LIG56    0.0000
     56 H20         4.1900   -6.7220   -3.1520 H         1    LIG56    0.0000
     57 H21         4.6110   -8.7840   -2.0210 H         1    LIG56    0.0000
@<TRIPOS>BOND
     1    1    2 2
     2    1    4 1
     3    1   11 1
     4    2    3 1
     5    2   37 1
     6    3    6 2
     7    3   38 1
     8    4    5 2
     9    4   39 1
    10    5    6 1
    11    5   10 1
    12    6    7 1
    13    7    8 2
    14    8    9 1
    15    8   15 1
    16    9   10 2
    17    9   40 1
    18   10   12 1
    19   11   31 2
    20   11   35 1
    21   12   13 2
    22   12   14 1
    23   14   41 1
    24   15   16 1
    25   15   17 2
    26   18   16 1
    27   16   42 1
    28   18   19 1
    29   18   20 1
    30   18   43 1
    31   19   22 1
    32   19   23 2
    33   20   21 1
    34   20   44 1
    35   20   45 1
    36   21   25 2
    37   21   29 1
    38   22   24 1
    39   24   46 1
    40   24   47 1
    41   24   48 1
    42   25   26 1
    43   25   49 1
    44   26   27 2
    45   26   50 1
    46   27   28 1
    47   27   30 1
    48   28   29 2
    49   28   51 1
    50   29   52 1
    51   30   53 1
    52   31   32 1
    53   31   54 1
    54   32   33 2
    55   32   55 1
    56   33   34 1
    57   33   36 1
    58   34   35 2
    59   34   56 1
    60   35   57 1
@<TRIPOS>SUBSTRUCTURE
     1    LIG56    1   GROUP 1   LIG 1
@<TRIPOS>MOLECULE
50077214
   54    57    1     0     0
SMALL
USER_CHARGES


@<TRIPOS>ATOM
      1 C1          4.0600   -1.8610    0.6810 C.2       1    LIG57    0.0000
      2 C2          4.2750   -2.7320   -0.4060 C.2       1    LIG57    0.0000
      3 C3          3.6360   -3.9770   -0.4650 C.2       1    LIG57    0.0000
      4 C4          3.1790   -2.2770    1.7080 C.2       1    LIG57    0.0000
      5 C5          2.5130   -3.5290    1.6820 C.2       1    LIG57    0.0000
      6 C6          2.7690   -4.3710    0.5650 C.2       1    LIG57    0.0000
      7 N1          2.1770   -5.5830    0.4670 N.2       1    LIG57    0.0000
      8 C7          1.3220   -6.0750    1.3940 C.2       1    LIG57    0.0000
      9 C8          1.0310   -5.2830    2.5180 C.2       1    LIG57    0.0000
     10 C9          1.6140   -4.0030    2.6850 C.2       1    LIG57    0.0000
     11 C10         4.7310   -0.6100    0.7020 C.2       1    LIG57    0.0000
     12 C11         4.6340    0.3660    1.6980 C.2       1    LIG57    0.0000
     13 C12         5.4140    1.4830    1.4410 C.2       1    LIG57    0.0000
     14 C13         6.1080    1.3630    0.2480 C.2       1    LIG57    0.0000
     15 S1          5.8070   -0.1300   -0.5740 S.3       1    LIG57    0.0000
     16 C14         1.2400   -3.2910    3.8630 C.2       1    LIG57    0.0000
     17 O1          1.6560   -2.1500    4.1570 O.2       1    LIG57    0.0000
     18 O2          0.3810   -3.8200    4.7650 O.3       1    LIG57    0.0000
     19 C15         0.7500   -7.3490    1.2000 C.2       1    LIG57    0.0000
     20 N2          1.0630   -8.0550    0.0890 N.am      1    LIG57    0.0000
     21 O3         -0.0550   -7.8270    2.0320 O.2       1    LIG57    0.0000
     22 C16         0.5110   -9.3280   -0.2430 C.3       1    LIG57    0.0000
     23 C17         1.5870  -10.2690   -0.4240 C.2       1    LIG57    0.0000
     24 C18        -0.3160   -9.2130   -1.5440 C.3       1    LIG57    0.0000
     25 C19        -1.4340   -8.2540   -1.4180 C.2       1    LIG57    0.0000
     26 O4          2.5160  -10.0220   -1.3480 O.3       1    LIG57    0.0000
     27 O5          1.6290  -11.2780    0.2660 O.2       1    LIG57    0.0000
     28 C20         3.5900  -10.9460   -1.5330 C.3       1    LIG57    0.0000
     29 C21        -2.4960   -8.5120   -0.5260 C.2       1    LIG57    0.0000
     30 C22        -3.5490   -7.5930   -0.3880 C.2       1    LIG57    0.0000
     31 C23        -3.5520   -6.4070   -1.1400 C.2       1    LIG57    0.0000
     32 C24        -2.5000   -6.1430   -2.0350 C.2       1    LIG57    0.0000
     33 C25        -1.4470   -7.0630   -2.1730 C.2       1    LIG57    0.0000
     34 O6         -4.5640   -5.5230   -0.9970 O.3       1    LIG57    0.0000
     35 H1          4.9010   -2.4720   -1.1700 H         1    LIG57    0.0000
     36 H2          3.8040   -4.5960   -1.2590 H         1    LIG57    0.0000
     37 H3          3.0290   -1.6460    2.4880 H         1    LIG57    0.0000
     38 H4          0.3830   -5.6480    3.2200 H         1    LIG57    0.0000
     39 H5          4.0550    0.2820    2.5340 H         1    LIG57    0.0000
     40 H6          5.4710    2.2940    2.0570 H         1    LIG57    0.0000
     41 H7          6.7360    2.0840   -0.1100 H         1    LIG57    0.0000
     42 H8          0.2060   -3.2330    5.5290 H         1    LIG57    0.0000
     43 H9          1.6890   -7.6540   -0.5350 H         1    LIG57    0.0000
     44 H10        -0.1390   -9.6980    0.5540 H         1    LIG57    0.0000
     45 H11         0.3500   -8.9090   -2.3550 H         1    LIG57    0.0000
     46 H12        -0.7230  -10.1950   -1.7950 H         1    LIG57    0.0000
     47 H13         4.2460  -10.5770   -2.3210 H         1    LIG57    0.0000
     48 H14         4.1610  -11.0440   -0.6090 H         1    LIG57    0.0000
     49 H15         3.1970  -11.9210   -1.8230 H         1    LIG57    0.0000
     50 H16        -2.4990   -9.3680    0.0290 H         1    LIG57    0.0000
     51 H17        -4.3120   -7.7860    0.2630 H         1    LIG57    0.0000
     52 H18        -2.4980   -5.2830   -2.5830 H         1    LIG57    0.0000
     53 H19        -0.6850   -6.8600   -2.8200 H         1    LIG57    0.0000
     54 H20        -4.4840   -4.7170   -1.5470 H         1    LIG57    0.0000
@<TRIPOS>BOND
     1    1    2 2
     2    1    4 1
     3    1   11 1
     4    2    3 1
     5    2   35 1
     6    3    6 2
     7    3   36 1
     8    4    5 2
     9    4   37 1
    10    5    6 1
    11    5   10 1
    12    6    7 1
    13    7    8 2
    14    8    9 1
    15    8   19 1
    16    9   10 2
    17    9   38 1
    18   10   16 1
    19   11   12 2
    20   11   15 1
    21   12   13 1
    22   12   39 1
    23   13   14 2
    24   13   40 1
    25   14   15 1
    26   14   41 1
    27   16   17 2
    28   16   18 1
    29   18   42 1
    30   19   20 1
    31   19   21 2
    32   22   20 1
    33   20   43 1
    34   22   23 1
    35   22   24 1
    36   22   44 1
    37   23   26 1
    38   23   27 2
    39   24   25 1
    40   24   45 1
    41   24   46 1
    42   25   29 2
    43   25   33 1
    44   26   28 1
    45   28   47 1
    46   28   48 1
    47   28   49 1
    48   29   30 1
    49   29   50 1
    50   30   31 2
    51   30   51 1
    52   31   32 1
    53   31   34 1
    54   32   33 2
    55   32   52 1
    56   33   53 1
    57   34   54 1
@<TRIPOS>SUBSTRUCTURE
     1    LIG57    1   GROUP 1   LIG 1
@<TRIPOS>MOLECULE
50579845
   47    50    1     0     0
SMALL
USER_CHARGES


@<TRIPOS>ATOM
      1 C1         11.9200  -11.3150    0.6550 C.2       1    LIG58    0.0000
      2 C2         12.0210  -12.7130    0.6350 C.2       1    LIG58    0.0000
      3 N1         13.2290  -13.3070    0.4830 N.2       1    LIG58    0.0000
      4 C3         14.3630  -12.5820    0.3470 C.2       1    LIG58    0.0000
      5 N2         14.2710  -11.2290    0.3650 N.2       1    LIG58    0.0000
      6 C4         13.1000  -10.5630    0.5130 C.2       1    LIG58    0.0000
      7 N3         15.5470  -13.2180    0.1980 N.pl3     1    LIG58    0.0000
      8 C5         16.7190  -12.5580    0.0560 C.2       1    LIG58    0.0000
      9 C6         17.4820  -12.2240    1.1900 C.2       1    LIG58    0.0000
     10 C7         18.6680  -11.4820    1.0480 C.2       1    LIG58    0.0000
     11 C8         19.1030  -11.0720   -0.2280 C.2       1    LIG58    0.0000
     12 C9         18.3460  -11.4260   -1.3620 C.2       1    LIG58    0.0000
     13 C10        17.1600  -12.1680   -1.2220 C.2       1    LIG58    0.0000
     14 C11        13.0750   -9.1530    0.5220 C.2       1    LIG58    0.0000
     15 S1         11.5910   -8.2770    0.7120 S.3       1    LIG58    0.0000
     16 C12        12.5210   -6.8220    0.6010 C.2       1    LIG58    0.0000
     17 N4         13.8370   -7.0020    0.4350 N.2       1    LIG58    0.0000
     18 C13        14.1750   -8.2970    0.3870 C.2       1    LIG58    0.0000
     19 C14        15.5770   -8.7010    0.2090 C.3       1    LIG58    0.0000
     20 C15        11.9070   -5.4980    0.6830 C.3       1    LIG58    0.0000
     21 N5         20.2290  -10.3220   -0.3600 N.pl3     1    LIG58    0.0000
     22 C16        21.3130  -10.7290   -1.1950 C.3       1    LIG58    0.0000
     23 C17        21.5550   -9.6450   -2.2570 C.3       1    LIG58    0.0000
     24 O1         21.6970   -8.3760   -1.6180 O.3       1    LIG58    0.0000
     25 C18        20.6080   -7.9790   -0.7840 C.3       1    LIG58    0.0000
     26 C19        20.3570   -9.0540    0.2850 C.3       1    LIG58    0.0000
     27 H1         11.0090  -10.8690    0.7700 H         1    LIG58    0.0000
     28 H2         11.1840  -13.2870    0.7350 H         1    LIG58    0.0000
     29 H3         15.5540  -14.1870    0.1950 H         1    LIG58    0.0000
     30 H4         17.1670  -12.5010    2.1210 H         1    LIG58    0.0000
     31 H5         19.2080  -11.2320    1.8770 H         1    LIG58    0.0000
     32 H6         18.6490  -11.1320   -2.2910 H         1    LIG58    0.0000
     33 H7         16.6110  -12.4050   -2.0480 H         1    LIG58    0.0000
     34 H8         16.2110   -7.8170    0.1330 H         1    LIG58    0.0000
     35 H9         15.9030   -9.2960    1.0630 H         1    LIG58    0.0000
     36 H10        15.6800   -9.2880   -0.7040 H         1    LIG58    0.0000
     37 H11        12.6710   -4.7250    0.5880 H         1    LIG58    0.0000
     38 H12        11.1800   -5.3870   -0.1210 H         1    LIG58    0.0000
     39 H13        11.4040   -5.3930    1.6440 H         1    LIG58    0.0000
     40 H14        21.1180  -11.6830   -1.6910 H         1    LIG58    0.0000
     41 H15        22.2110  -10.8330   -0.5850 H         1    LIG58    0.0000
     42 H16        22.4630   -9.8760   -2.8140 H         1    LIG58    0.0000
     43 H17        20.7100   -9.6140   -2.9460 H         1    LIG58    0.0000
     44 H18        19.7100   -7.8530   -1.3910 H         1    LIG58    0.0000
     45 H19        20.8470   -7.0320   -0.3000 H         1    LIG58    0.0000
     46 H20        19.4620   -8.7860    0.8520 H         1    LIG58    0.0000
     47 H21        21.2080   -9.0840    0.9660 H         1    LIG58    0.0000
@<TRIPOS>BOND
     1    1    2 2
     2    1    6 1
     3    1   27 1
     4    2    3 1
     5    2   28 1
     6    3    4 2
     7    4    5 1
     8    4    7 1
     9    5    6 2
    10    6   14 1
    11    7    8 1
    12    7   29 1
    13    8    9 1
    14    8   13 2
    15    9   10 2
    16    9   30 1
    17   10   11 1
    18   10   31 1
    19   11   12 2
    20   11   21 1
    21   12   13 1
    22   12   32 1
    23   13   33 1
    24   14   15 1
    25   14   18 2
    26   15   16 1
    27   16   17 2
    28   16   20 1
    29   17   18 1
    30   18   19 1
    31   19   34 1
    32   19   35 1
    33   19   36 1
    34   20   37 1
    35   20   38 1
    36   20   39 1
    37   21   22 1
    38   21   26 1
    39   22   23 1
    40   22   40 1
    41   22   41 1
    42   23   24 1
    43   23   42 1
    44   23   43 1
    45   24   25 1
    46   25   26 1
    47   25   44 1
    48   25   45 1
    49   26   46 1
    50   26   47 1
@<TRIPOS>SUBSTRUCTURE
     1    LIG58    1   GROUP 1   LIG 1
@<TRIPOS>MOLECULE
50436577
   37    39    1     0     0
SMALL
USER_CHARGES


@<TRIPOS>ATOM
      1 C1         -3.1890    2.8050   -0.0330 C.2       1    LIG59    0.0000
      2 C2         -3.2250    1.5960    0.6860 C.2       1    LIG59    0.0000
      3 C3         -2.0250    1.0860    1.2260 C.2       1    LIG59    0.0000
      4 C4         -0.8130    1.7890    1.0810 C.2       1    LIG59    0.0000
      5 C5         -0.8020    3.0080    0.3760 C.2       1    LIG59    0.0000
      6 C6         -1.9860    3.5210   -0.1880 C.2       1    LIG59    0.0000
      7 N1         -4.4210    0.9620    0.7900 N.pl3     1    LIG59    0.0000
      8 C7         -4.9100    0.3350    1.8870 C.2       1    LIG59    0.0000
      9 N2         -6.1500   -0.2030    1.8130 N.2       1    LIG59    0.0000
     10 C8         -6.7220   -0.8320    2.8660 C.2       1    LIG59    0.0000
     11 C9         -6.0290   -0.9430    4.0790 C.2       1    LIG59    0.0000
     12 C10        -4.7400   -0.3830    4.1500 C.2       1    LIG59    0.0000
     13 N3         -4.2310    0.2360    3.0570 N.2       1    LIG59    0.0000
     14 C11        -3.9560   -0.4440    5.3120 C.2       1    LIG59    0.0000
     15 N4         -4.3570   -1.0280    6.4570 N.2       1    LIG59    0.0000
     16 C12        -3.4230   -0.9610    7.4130 C.2       1    LIG59    0.0000
     17 C13        -2.2690   -0.3130    6.9960 C.2       1    LIG59    0.0000
     18 S1         -2.3610    0.2370    5.3590 S.3       1    LIG59    0.0000
     19 C14        -1.0910   -0.1100    7.8400 C.3       1    LIG59    0.0000
     20 C15        -1.9860    4.7900   -0.9310 C.3       1    LIG59    0.0000
     21 C16         0.4190    1.2410    1.6690 C.3       1    LIG59    0.0000
     22 H1         -4.0500    3.1760   -0.4400 H         1    LIG59    0.0000
     23 H2         -2.0300    0.1970    1.7270 H         1    LIG59    0.0000
     24 H3          0.0730    3.5230    0.2700 H         1    LIG59    0.0000
     25 H4         -5.0130    1.0130    0.0240 H         1    LIG59    0.0000
     26 H5         -7.6600   -1.2260    2.7760 H         1    LIG59    0.0000
     27 H6         -6.4530   -1.4170    4.8780 H         1    LIG59    0.0000
     28 H7         -3.5470   -1.3500    8.3480 H         1    LIG59    0.0000
     29 H8         -0.3220    0.4130    7.2710 H         1    LIG59    0.0000
     30 H9         -1.3600    0.4860    8.7120 H         1    LIG59    0.0000
     31 H10        -0.7000   -1.0750    8.1660 H         1    LIG59    0.0000
     32 H11        -0.9900    5.2380   -0.9460 H         1    LIG59    0.0000
     33 H12        -2.3050    4.6120   -1.9580 H         1    LIG59    0.0000
     34 H13        -2.6760    5.4900   -0.4580 H         1    LIG59    0.0000
     35 H14         1.2720    1.8960    1.4790 H         1    LIG59    0.0000
     36 H15         0.2920    1.1350    2.7470 H         1    LIG59    0.0000
     37 H16         0.6270    0.2620    1.2360 H         1    LIG59    0.0000
@<TRIPOS>BOND
     1    1    2 1
     2    1    6 2
     3    1   22 1
     4    2    3 2
     5    2    7 1
     6    3    4 1
     7    3   23 1
     8    4    5 2
     9    4   21 1
    10    5    6 1
    11    5   24 1
    12    6   20 1
    13    7    8 1
    14    7   25 1
    15    8    9 1
    16    8   13 2
    17    9   10 2
    18   10   11 1
    19   10   26 1
    20   11   12 2
    21   11   27 1
    22   12   13 1
    23   12   14 1
    24   14   15 2
    25   14   18 1
    26   15   16 1
    27   16   17 2
    28   16   28 1
    29   17   18 1
    30   17   19 1
    31   19   29 1
    32   19   30 1
    33   19   31 1
    34   20   32 1
    35   20   33 1
    36   20   34 1
    37   21   35 1
    38   21   36 1
    39   21   37 1
@<TRIPOS>SUBSTRUCTURE
     1    LIG59    1   GROUP 1   LIG 1
@<TRIPOS>MOLECULE
50948471
   62    65    1     0     0
SMALL
USER_CHARGES


@<TRIPOS>ATOM
      1 C1         21.4330   -6.0770    0.5480 C.3       1    LIG60    0.0000
      2 C2         22.4290   -5.0250    0.0200 C.3       1    LIG60    0.0000
      3 C3         22.1040   -7.0110    1.5760 C.3       1    LIG60    0.0000
      4 N1         20.0040   -4.5830    2.1530 N.2       1    LIG60    0.0000
      5 N2         18.7110   -4.3980    2.1290 N.pl3     1    LIG60    0.0000
      6 C4         18.1000   -5.0850    1.1370 C.2       1    LIG60    0.0000
      7 N3         16.7880   -5.1360    0.8120 N.am      1    LIG60    0.0000
      8 C5         20.2710   -5.4230    1.1420 C.2       1    LIG60    0.0000
      9 C6         19.1260   -5.7510    0.5000 C.2       1    LIG60    0.0000
     10 C7         19.3450   -6.6600   -0.6040 C.3       1    LIG60    0.0000
     11 N4         20.7770   -6.8100   -0.5180 N.am      1    LIG60    0.0000
     12 C8         21.4380   -7.6180   -1.3850 C.2       1    LIG60    0.0000
     13 O1         22.7890   -7.7480   -1.3000 O.3       1    LIG60    0.0000
     14 O2         20.8040   -8.2440   -2.2650 O.2       1    LIG60    0.0000
     15 C9         15.7950   -4.4680    1.4560 C.2       1    LIG60    0.0000
     16 C10        14.4500   -4.5950    1.0300 C.2       1    LIG60    0.0000
     17 O3         16.0650   -3.7380    2.4410 O.2       1    LIG60    0.0000
     18 C11        13.3860   -4.2310    1.8870 C.2       1    LIG60    0.0000
     19 C12        12.0490   -4.3570    1.4740 C.2       1    LIG60    0.0000
     20 C13        11.7520   -4.8500    0.1920 C.2       1    LIG60    0.0000
     21 C14        12.7970   -5.2130   -0.6740 C.2       1    LIG60    0.0000
     22 C15        14.1340   -5.0860   -0.2580 C.2       1    LIG60    0.0000
     23 C16        23.4430   -8.9550   -1.7120 C.3       1    LIG60    0.0000
     24 C17        23.2910  -10.0450   -0.6240 C.3       1    LIG60    0.0000
     25 C18        24.8720   -8.6460   -1.9450 C.2       1    LIG60    0.0000
     26 C19        25.6560   -8.0620   -0.9270 C.2       1    LIG60    0.0000
     27 C20        27.0130   -7.7720   -1.1470 C.2       1    LIG60    0.0000
     28 C21        27.6000   -8.0610   -2.3900 C.2       1    LIG60    0.0000
     29 C22        26.8290   -8.6370   -3.4120 C.2       1    LIG60    0.0000
     30 C23        25.4710   -8.9260   -3.1910 C.2       1    LIG60    0.0000
     31 N5         21.8770  -10.4170   -0.3980 N.3       1    LIG60    1.0000
     32 C24        21.3800  -11.3060   -1.4650 C.3       1    LIG60    0.0000
     33 C25        21.7340  -11.0940    0.9030 C.3       1    LIG60    0.0000
     34 F1         10.5130   -4.9680   -0.1930 F         1    LIG60    0.0000
     35 H1         21.9550   -4.4110   -0.7480 H         1    LIG60    0.0000
     36 H2         22.7600   -4.3830    0.8370 H         1    LIG60    0.0000
     37 H3         23.3010   -5.5170   -0.4110 H         1    LIG60    0.0000
     38 H4         21.4050   -7.7880    1.8910 H         1    LIG60    0.0000
     39 H5         22.9810   -7.4840    1.1360 H         1    LIG60    0.0000
     40 H6         22.4200   -6.4380    2.4490 H         1    LIG60    0.0000
     41 H7         18.2340   -3.8290    2.7550 H         1    LIG60    0.0000
     42 H8         16.5400   -5.6950    0.0610 H         1    LIG60    0.0000
     43 H9         18.8310   -7.6080   -0.4390 H         1    LIG60    0.0000
     44 H10        19.0440   -6.2070   -1.5500 H         1    LIG60    0.0000
     45 H11        13.5790   -3.8720    2.8240 H         1    LIG60    0.0000
     46 H12        11.2950   -4.0910    2.1080 H         1    LIG60    0.0000
     47 H13        12.5880   -5.5700   -1.6070 H         1    LIG60    0.0000
     48 H14        14.8740   -5.3520   -0.9090 H         1    LIG60    0.0000
     49 H15        23.0010   -9.3180   -2.6420 H         1    LIG60    0.0000
     50 H16        23.8630  -10.9320   -0.9060 H         1    LIG60    0.0000
     51 H17        23.7040   -9.6540    0.3080 H         1    LIG60    0.0000
     52 H18        25.2370   -7.8450   -0.0220 H         1    LIG60    0.0000
     53 H19        27.5720   -7.3510   -0.4040 H         1    LIG60    0.0000
     54 H20        28.5860   -7.8510   -2.5500 H         1    LIG60    0.0000
     55 H21        27.2540   -8.8450   -4.3160 H         1    LIG60    0.0000
     56 H22        24.9200   -9.3450   -3.9400 H         1    LIG60    0.0000
     57 H23        20.3390  -11.5660   -1.2680 H         1    LIG60    0.0000
     58 H24        21.4280  -10.8030   -2.4300 H         1    LIG60    0.0000
     59 H25        21.9740  -12.2200   -1.5080 H         1    LIG60    0.0000
     60 H26        20.6890  -11.3620    1.0670 H         1    LIG60    0.0000
     61 H27        22.3460  -11.9970    0.9330 H         1    LIG60    0.0000
     62 H28        22.0470  -10.4220    1.7040 H         1    LIG60    0.0000
@<TRIPOS>BOND
     1    1    2 1
     2    1    3 1
     3    1    8 1
     4    1   11 1
     5    2   35 1
     6    2   36 1
     7    2   37 1
     8    3   38 1
     9    3   39 1
    10    3   40 1
    11    4    5 1
    12    4    8 2
    13    5    6 1
    14    5   41 1
    15    6    7 1
    16    6    9 2
    17    7   15 1
    18    7   42 1
    19    8    9 1
    20    9   10 1
    21   10   11 1
    22   10   43 1
    23   10   44 1
    24   11   12 1
    25   12   13 1
    26   12   14 2
    27   23   13 1
    28   15   16 1
    29   15   17 2
    30   16   18 2
    31   16   22 1
    32   18   19 1
    33   18   45 1
    34   19   20 2
    35   19   46 1
    36   20   21 1
    37   20   34 1
    38   21   22 2
    39   21   47 1
    40   22   48 1
    41   23   24 1
    42   23   25 1
    43   23   49 1
    44   24   31 1
    45   24   50 1
    46   24   51 1
    47   25   26 2
    48   25   30 1
    49   26   27 1
    50   26   52 1
    51   27   28 2
    52   27   53 1
    53   28   29 1
    54   28   54 1
    55   29   30 2
    56   29   55 1
    57   30   56 1
    58   31   32 1
    59   31   33 1
    60   32   57 1
    61   32   58 1
    62   32   59 1
    63   33   60 1
    64   33   61 1
    65   33   62 1
@<TRIPOS>SUBSTRUCTURE
     1    LIG60    1   GROUP 1   LIG 1
@<TRIPOS>MOLECULE
50357146
   35    37    1     0     0
SMALL
USER_CHARGES


@<TRIPOS>ATOM
      1 C1          0.4400    2.6030    0.0260 C.2       1    LIG61    0.0000
      2 C2          0.0110    0.4490   -0.9010 C.2       1    LIG61    0.0000
      3 C3          1.7590    2.2040    0.2630 C.2       1    LIG61    0.0000
      4 C4          2.1520    0.9260   -0.0970 C.2       1    LIG61    0.0000
      5 C5          3.8310    1.9420    0.7740 C.2       1    LIG61    0.0000
      6 N1          2.8130    2.8200    0.8010 N.pl3     1    LIG61    0.0000
      7 N2          3.4450    0.7720    0.2260 N.2       1    LIG61    0.0000
      8 N3         -0.3960    1.6990   -0.5540 N.2       1    LIG61    0.0000
      9 N4          1.2900    0.0570   -0.6720 N.2       1    LIG61    0.0000
     10 N5         -0.8520   -0.3970   -1.4690 N.pl3     1    LIG61    0.0000
     11 O1          0.0430    3.8550    0.3720 O.3       1    LIG61    0.0000
     12 C6         -1.3160    4.2470    0.1640 C.3       1    LIG61    0.0000
     13 C7         -1.4970    5.7070    0.6110 C.3       1    LIG61    0.0000
     14 C8         -0.6250    6.6430   -0.2470 C.3       1    LIG61    0.0000
     15 C9         -0.8170    8.1040    0.1870 C.3       1    LIG61    0.0000
     16 C10        -2.2950    8.5070    0.0780 C.3       1    LIG61    0.0000
     17 C11        -3.1680    7.5740    0.9310 C.3       1    LIG61    0.0000
     18 C12        -2.9770    6.1140    0.4960 C.3       1    LIG61    0.0000
     19 H1          4.7710    2.1350    1.1230 H         1    LIG61    0.0000
     20 H2          2.8380    3.7260    1.1450 H         1    LIG61    0.0000
     21 H3         -0.5610   -1.2880   -1.7170 H         1    LIG61    0.0000
     22 H4         -1.7650   -0.1190   -1.6330 H         1    LIG61    0.0000
     23 H5         -1.5770    4.1570   -0.8920 H         1    LIG61    0.0000
     24 H6         -1.9750    3.6080    0.7540 H         1    LIG61    0.0000
     25 H7         -1.1880    5.7910    1.6540 H         1    LIG61    0.0000
     26 H8         -0.9000    6.5390   -1.2970 H         1    LIG61    0.0000
     27 H9          0.4250    6.3720   -0.1270 H         1    LIG61    0.0000
     28 H10        -0.4820    8.2230    1.2180 H         1    LIG61    0.0000
     29 H11        -0.2190    8.7510   -0.4560 H         1    LIG61    0.0000
     30 H12        -2.6120    8.4470   -0.9640 H         1    LIG61    0.0000
     31 H13        -2.4150    9.5320    0.4270 H         1    LIG61    0.0000
     32 H14        -2.8920    7.6790    1.9820 H         1    LIG61    0.0000
     33 H15        -4.2160    7.8520    0.8110 H         1    LIG61    0.0000
     34 H16        -3.3100    5.9990   -0.5370 H         1    LIG61    0.0000
     35 H17        -3.5810    5.4700    1.1360 H         1    LIG61    0.0000
@<TRIPOS>BOND
     1    1    3 2
     2    1    8 1
     3    1   11 1
     4    2    8 2
     5    2    9 1
     6    2   10 1
     7    3    4 1
     8    3    6 1
     9    4    7 1
    10    4    9 2
    11    5    6 1
    12    5    7 2
    13    5   19 1
    14    6   20 1
    15   10   21 1
    16   10   22 1
    17   11   12 1
    18   12   13 1
    19   12   23 1
    20   12   24 1
    21   13   14 1
    22   13   18 1
    23   13   25 1
    24   14   15 1
    25   14   26 1
    26   14   27 1
    27   15   16 1
    28   15   28 1
    29   15   29 1
    30   16   17 1
    31   16   30 1
    32   16   31 1
    33   17   18 1
    34   17   32 1
    35   17   33 1
    36   18   34 1
    37   18   35 1
@<TRIPOS>SUBSTRUCTURE
     1    LIG61    1   GROUP 1   LIG 1
@<TRIPOS>MOLECULE
50304510
   52    56    1     0     0
SMALL
USER_CHARGES


@<TRIPOS>ATOM
      1 C1          1.9030   -2.1310    0.2090 C.2       1    LIG62    0.0000
      2 C2          1.8700   -3.5370    0.3320 C.2       1    LIG62    0.0000
      3 N1          0.7020   -4.1790    0.6070 N.2       1    LIG62    0.0000
      4 C3          0.7120   -1.3970    0.3730 C.2       1    LIG62    0.0000
      5 C4         -0.4780   -2.0920    0.6520 C.2       1    LIG62    0.0000
      6 C5         -0.4480   -3.4800    0.7650 C.2       1    LIG62    0.0000
      7 N2         -1.6850   -3.9170    1.0340 N.pl3     1    LIG62    0.0000
      8 C6         -2.5120   -2.8590    1.0980 C.2       1    LIG62    0.0000
      9 C7         -1.7960   -1.6820    0.8610 C.2       1    LIG62    0.0000
     10 C8         -2.3270   -0.3790    0.8380 C.2       1    LIG62    0.0000
     11 N3         -1.5360    0.6920    0.5870 N.2       1    LIG62    0.0000
     12 C9         -2.0050    1.9620    0.5490 C.2       1    LIG62    0.0000
     13 C10        -3.3700    2.2010    0.7850 C.2       1    LIG62    0.0000
     14 C11        -4.1820    1.0880    1.0450 C.2       1    LIG62    0.0000
     15 N4         -3.6470   -0.1570    1.0640 N.2       1    LIG62    0.0000
     16 F1         -3.8750    3.4040    0.7650 F         1    LIG62    0.0000
     17 N5         -1.1620    2.9880    0.2950 N.pl3     1    LIG62    0.0000
     18 C12         0.2310    2.8250    0.0460 C.3       1    LIG62    0.0000
     19 C13         0.4970    2.1680   -1.3300 C.3       1    LIG62    0.0000
     20 C14         2.0110    1.9010   -1.4450 C.3       1    LIG62    0.0000
     21 C15         2.7950    3.2260   -1.3500 C.3       1    LIG62    0.0000
     22 C16         1.8240    4.4070   -1.1490 C.3       1    LIG62    0.0000
     23 C17         0.9370    4.2080    0.1050 C.3       1    LIG62    0.0000
     24 F2          3.0220   -1.5160   -0.0530 F         1    LIG62    0.0000
     25 C18         1.7220    4.4100    1.4200 C.3       1    LIG62    0.0000
     26 C19         0.7630    4.5260    2.6130 C.3       1    LIG62    0.0000
     27 O1          2.6170    3.3340    1.6690 O.3       1    LIG62    0.0000
     28 H1          0.1790    4.9930    0.0700 H         1    LIG62    0.0000
     29 C20         0.0790    3.1310   -2.4600 C.3       1    LIG62    0.0000
     30 C21         0.8880    4.4440   -2.3740 C.3       1    LIG62    0.0000
     31 H2          2.7270   -4.0800    0.2160 H         1    LIG62    0.0000
     32 H3          0.7190   -0.3800    0.2900 H         1    LIG62    0.0000
     33 H4         -1.9400   -4.8440    1.1610 H         1    LIG62    0.0000
     34 H5         -3.5130   -2.9120    1.2890 H         1    LIG62    0.0000
     35 H6         -5.1800    1.2110    1.2200 H         1    LIG62    0.0000
     36 H7         -1.5250    3.8870    0.3070 H         1    LIG62    0.0000
     37 H8          0.6500    2.1770    0.8190 H         1    LIG62    0.0000
     38 H9         -0.0460    1.2270   -1.4240 H         1    LIG62    0.0000
     39 H10         2.2230    1.4180   -2.3990 H         1    LIG62    0.0000
     40 H11         2.3240    1.2360   -0.6390 H         1    LIG62    0.0000
     41 H12         3.3550    3.3780   -2.2730 H         1    LIG62    0.0000
     42 H13         3.5050    3.1790   -0.5250 H         1    LIG62    0.0000
     43 H14         2.3780    5.3440   -1.0790 H         1    LIG62    0.0000
     44 H15         2.2970    5.3340    1.3500 H         1    LIG62    0.0000
     45 H16         1.3350    4.7090    3.5230 H         1    LIG62    0.0000
     46 H17         0.0730    5.3540    2.4520 H         1    LIG62    0.0000
     47 H18         0.1960    3.6010    2.7270 H         1    LIG62    0.0000
     48 H19         3.1420    3.4260    2.4910 H         1    LIG62    0.0000
     49 H20         0.2580    2.6560   -3.4250 H         1    LIG62    0.0000
     50 H21        -0.9860    3.3520   -2.3710 H         1    LIG62    0.0000
     51 H22         1.4820    4.5660   -3.2810 H         1    LIG62    0.0000
     52 H23         0.2040    5.2890   -2.2870 H         1    LIG62    0.0000
@<TRIPOS>BOND
     1    1    2 2
     2    1    4 1
     3    1   24 1
     4    2    3 1
     5    2   31 1
     6    3    6 2
     7    4    5 2
     8    4   32 1
     9    5    6 1
    10    5    9 1
    11    6    7 1
    12    7    8 1
    13    7   33 1
    14    8    9 2
    15    8   34 1
    16    9   10 1
    17   10   11 2
    18   10   15 1
    19   11   12 1
    20   12   13 2
    21   12   17 1
    22   13   14 1
    23   13   16 1
    24   14   15 2
    25   14   35 1
    26   18   17 1
    27   17   36 1
    28   18   19 1
    29   18   23 1
    30   18   37 1
    31   19   20 1
    32   19   29 1
    33   19   38 1
    34   20   21 1
    35   20   39 1
    36   20   40 1
    37   21   22 1
    38   21   41 1
    39   21   42 1
    40   22   23 1
    41   22   30 1
    42   22   43 1
    43   23   25 1
    44   23   28 1
    45   25   26 1
    46   25   27 1
    47   25   44 1
    48   26   45 1
    49   26   46 1
    50   26   47 1
    51   27   48 1
    52   29   30 1
    53   29   49 1
    54   29   50 1
    55   30   51 1
    56   30   52 1
@<TRIPOS>SUBSTRUCTURE
     1    LIG62    1   GROUP 1   LIG 1
@<TRIPOS>MOLECULE
50699979
   35    36    1     0     0
SMALL
USER_CHARGES


@<TRIPOS>ATOM
      1 C1          0.1430    2.3200    0.4400 C.2       1    LIG63    0.0000
      2 C2         -0.8630    0.1840    0.3240 C.2       1    LIG63    0.0000
      3 C3          1.4750    0.3350    0.6030 C.2       1    LIG63    0.0000
      4 C4          1.4170    1.7450    0.5940 C.2       1    LIG63    0.0000
      5 N1         -0.9530    1.5320    0.3100 N.2       1    LIG63    0.0000
      6 N2          0.3460   -0.4000    0.4690 N.2       1    LIG63    0.0000
      7 N3         -1.9620   -0.5640    0.1960 N.pl3     1    LIG63    0.0000
      8 N4          2.4600    2.5460    0.7180 N.2       1    LIG63    0.0000
      9 O1          3.5680    2.2040    0.8520 O.2       1    LIG63    0.0000
     10 O2          0.0250    3.6770    0.4250 O.3       1    LIG63    0.0000
     11 C5         -1.2570    4.2850    0.2520 C.3       1    LIG63    0.0000
     12 C6         -1.1020    5.8140    0.2770 C.3       1    LIG63    0.0000
     13 C7         -0.1950    6.2810   -0.8770 C.3       1    LIG63    0.0000
     14 C8         -0.0530    7.8110   -0.8650 C.3       1    LIG63    0.0000
     15 C9         -1.4330    8.4780   -0.9700 C.3       1    LIG63    0.0000
     16 C10        -2.3390    8.0150    0.1810 C.3       1    LIG63    0.0000
     17 C11        -2.4830    6.4860    0.1670 C.3       1    LIG63    0.0000
     18 N5          2.6290   -0.3330    0.7420 N.pl3     1    LIG63    0.0000
     19 H1         -1.8910   -1.5310    0.2080 H         1    LIG63    0.0000
     20 H2         -2.8260   -0.1390    0.0930 H         1    LIG63    0.0000
     21 H3         -1.6900    3.9790   -0.7020 H         1    LIG63    0.0000
     22 H4         -1.9210    3.9800    1.0630 H         1    LIG63    0.0000
     23 H5         -0.6450    6.1000    1.2260 H         1    LIG63    0.0000
     24 H6         -0.6230    5.9660   -1.8290 H         1    LIG63    0.0000
     25 H7          0.7930    5.8330   -0.7660 H         1    LIG63    0.0000
     26 H8          0.4320    8.1230    0.0610 H         1    LIG63    0.0000
     27 H9          0.5620    8.1210   -1.7100 H         1    LIG63    0.0000
     28 H10        -1.8930    8.2140   -1.9230 H         1    LIG63    0.0000
     29 H11        -1.3140    9.5610   -0.9220 H         1    LIG63    0.0000
     30 H12        -1.9080    8.3310    1.1320 H         1    LIG63    0.0000
     31 H13        -3.3240    8.4710    0.0690 H         1    LIG63    0.0000
     32 H14        -2.9680    6.1780   -0.7600 H         1    LIG63    0.0000
     33 H15        -3.1040    6.1800    1.0100 H         1    LIG63    0.0000
     34 H16         2.6290   -1.3020    0.7410 H         1    LIG63    0.0000
     35 H17         3.4610    0.1540    0.8420 H         1    LIG63    0.0000
@<TRIPOS>BOND
     1    1    4 1
     2    1    5 2
     3    1   10 1
     4    2    5 1
     5    2    6 2
     6    2    7 1
     7    3    4 2
     8    3    6 1
     9    3   18 1
    10    4    8 1
    11    7   19 1
    12    7   20 1
    13    8    9 2
    14   10   11 1
    15   11   12 1
    16   11   21 1
    17   11   22 1
    18   12   13 1
    19   12   17 1
    20   12   23 1
    21   13   14 1
    22   13   24 1
    23   13   25 1
    24   14   15 1
    25   14   26 1
    26   14   27 1
    27   15   16 1
    28   15   28 1
    29   15   29 1
    30   16   17 1
    31   16   30 1
    32   16   31 1
    33   17   32 1
    34   17   33 1
    35   18   34 1
    36   18   35 1
@<TRIPOS>SUBSTRUCTURE
     1    LIG63    1   GROUP 1   LIG 1
@<TRIPOS>MOLECULE
51476382
   55    58    1     0     0
SMALL
USER_CHARGES


@<TRIPOS>ATOM
      1 O1         -3.6202    0.9146    0.0000 O.2       1    LIG64    0.0000
      2 C1         -3.6202    0.0896    0.0000 C.2       1    LIG64    0.0000
      3 N1         -4.3347   -0.3229    0.0000 N.am      1    LIG64    0.0000
      4 C2         -4.3347   -1.1478    0.0000 C.2       1    LIG64    0.0000
      5 N2         -3.6202   -1.5603    0.0000 N.2       1    LIG64    0.0000
      6 C3         -2.9058   -1.1478    0.0000 C.ar      1    LIG64    0.0000
      7 C4         -2.9058   -0.3229    0.0000 C.ar      1    LIG64    0.0000
      8 C5         -2.1212   -0.0679    0.0000 C.ar      1    LIG64    0.0000
      9 C6         -1.8662    0.7166    0.0000 C.ar      1    LIG64    0.0000
     10 C7         -2.4182    1.3297    0.0000 C.ar      1    LIG64    0.0000
     11 C8         -2.1633    2.1143    0.0000 C.ar      1    LIG64    0.0000
     12 C9         -1.3563    2.2859    0.0000 C.ar      1    LIG64    0.0000
     13 C10        -0.8043    1.6728    0.0000 C.ar      1    LIG64    0.0000
     14 N3          0.0026    1.8443    0.0000 N.am      1    LIG64    0.0000
     15 C11         0.5545    1.2312    0.0000 C.2       1    LIG64    0.0000
     16 C12         1.3616    1.4028    0.0000 C.2       1    LIG64    0.0000
     17 C13         1.6164    2.1873    0.0000 C.2       1    LIG64    0.0000
     18 N4          1.8714    2.9720    0.0000 N.2       1    LIG64    1.0000
     19 C14         1.9451    0.8192    0.0000 C.2       1    LIG64    0.0000
     20 C15         2.7423    1.0328    0.0000 C.ar      1    LIG64    0.0000
     21 O2          0.2996    0.4466    0.0000 O.2       1    LIG64    0.0000
     22 C16        -1.0592    0.8882    0.0000 C.ar      1    LIG64    0.0000
     23 N5         -1.6362   -0.7352    0.0000 N.ar      1    LIG64    0.0000
     24 N6         -2.1212   -1.4028    0.0000 N.pl3     1    LIG64    0.0000
     25 C17        -1.8662   -2.1873    0.0000 C.3       1    LIG64    0.0000
     26 C18        -1.0592   -2.3589    0.0000 C.3       1    LIG64    0.0000
     27 C19        -2.4182   -2.8005    0.0000 C.3       1    LIG64    0.0000
     28 C20        -1.6113   -2.9720    0.0000 C.3       1    LIG64    0.0000
     29 C21         2.9561    1.8300    0.0000 C.ar      1    LIG64    0.0000
     30 C22         3.7510    2.0421    0.0000 C.ar      1    LIG64    0.0000
     31 C23         4.3347    1.4584    0.0000 C.ar      1    LIG64    0.0000
     32 C24         4.1237    0.6649    0.0000 C.ar      1    LIG64    0.0000
     33 C25         3.3283    0.4468    0.0000 C.ar      1    LIG64    0.0000
     34 Br1         3.1147   -0.3502    0.0000 Br        1    LIG64    0.0000
     35 H1         -5.2267    0.1921    0.0000 H         1    LIG64    0.0000
     36 H2         -5.2787   -1.6928    0.0000 H         1    LIG64    0.0000
     37 H3         -3.4844    1.1031    0.0000 H         1    LIG64    0.0000
     38 H4         -2.8927    2.9243    0.0000 H         1    LIG64    0.0000
     39 H5         -1.0195    3.3226    0.0000 H         1    LIG64    0.0000
     40 H6          0.3210    2.8239    0.0000 H         1    LIG64    0.0000
     41 H7          1.6629   -0.2336    0.0000 H         1    LIG64    0.0000
     42 H8         -0.3298    0.0782    0.0000 H         1    LIG64    0.0000
     43 H9         -0.9643   -3.4448    0.0000 H         1    LIG64    0.0000
     44 H10        -0.6391   -1.9154   -0.9027 H         1    LIG64    0.0000
     45 H11        -0.6391   -1.9154    0.9027 H         1    LIG64    0.0000
     46 H12        -1.8567   -3.7347    0.0000 H         1    LIG64    0.0000
     47 H13        -3.0188   -2.6887    0.9027 H         1    LIG64    0.0000
     48 H14        -3.0188   -2.6887   -0.9027 H         1    LIG64    0.0000
     49 H15        -0.5215   -2.9531    0.0000 H         1    LIG64    0.0000
     50 H16        -2.0085   -3.4361    0.9027 H         1    LIG64    0.0000
     51 H17        -2.0085   -3.4361   -0.9027 H         1    LIG64    0.0000
     52 H18         2.1858    2.6012    0.0000 H         1    LIG64    0.0000
     53 H19         4.0337    3.0948    0.0000 H         1    LIG64    0.0000
     54 H20         5.3873    1.7415    0.0000 H         1    LIG64    0.0000
     55 H21         4.8974   -0.1029    0.0000 H         1    LIG64    0.0000
@<TRIPOS>BOND
     1    2    1 2
     2    2    3 ar
     3    3    4 2
     4    5    4 1
     5    6    5 2
     6    7    6 ar
     7    2    7 1
     8    7    8 ar
     9    9    8 1
    10   10    9 ar
    11   10   11 ar
    12   11   12 ar
    13   12   13 ar
    14   13   14 2
    15   14   15 am
    16   15   16 1
    17   16   17 2
    18   17   18 1
    19   16   19 1
    20   19   20 2
    21   15   21 2
    22   13   22 ar
    23    9   22 ar
    24    8   23 ar
    25   23   24 ar
    26    6   24 ar
    27   24   25 1
    28   25   26 1
    29   25   27 1
    30   25   28 1
    31   29   20 ar
    32   30   29 ar
    33   31   30 ar
    34   32   31 ar
    35   33   32 ar
    36   20   33 ar
    37   33   34 1
    38    3   35 1
    39    4   36 1
    40   10   37 1
    41   11   38 1
    42   12   39 1
    43   14   40 1
    44   19   41 1
    45   22   42 1
    46   26   43 1
    47   26   44 1
    48   26   45 1
    49   27   46 1
    50   27   47 1
    51   27   48 1
    52   28   49 1
    53   28   50 1
    54   28   51 1
    55   29   52 1
    56   30   53 1
    57   31   54 1
    58   32   55 1
@<TRIPOS>SUBSTRUCTURE
     1    LIG64    1   GROUP 1   LIG 1
@<TRIPOS>MOLECULE
51476377
   57    60    1     0     0
SMALL
USER_CHARGES


@<TRIPOS>ATOM
      1 O1         -4.2674    0.8228    0.0000 O.2       1    LIG65    0.0000
      2 C1         -4.2674   -0.0020    0.0000 C.2       1    LIG65    0.0000
      3 N1         -4.9819   -0.4141    0.0000 N.am      1    LIG65    0.0000
      4 C2         -4.9819   -1.2424    0.0000 C.2       1    LIG65    0.0000
      5 N2         -4.2656   -1.6506    0.0000 N.1       1    LIG65    0.0000
      6 C3         -3.5556   -1.2387    0.0000 C.ar      1    LIG65    0.0000
      7 C4         -3.5556   -0.4137    0.0000 C.ar      1    LIG65    0.0000
      8 C5         -2.7709   -0.1589    0.0000 C.ar      1    LIG65    0.0000
      9 C6         -2.5574    0.6377    0.0000 C.ar      1    LIG65    0.0000
     10 C7         -3.1405    1.2215    0.0000 C.ar      1    LIG65    0.0000
     11 C8         -2.9269    2.0159    0.0000 C.ar      1    LIG65    0.0000
     12 C9         -2.1297    2.2294    0.0000 C.ar      1    LIG65    0.0000
     13 C10        -1.5480    1.6501    0.0000 C.ar      1    LIG65    0.0000
     14 N3         -0.7511    1.8636    0.0000 N.am      1    LIG65    0.0000
     15 C11        -0.1678    1.2801    0.0000 C.2       1    LIG65    0.0000
     16 C12         0.6288    1.4936    0.0000 C.2       1    LIG65    0.0000
     17 C13         0.8425    2.2906    0.0000 C.2       1    LIG65    0.0000
     18 N4          1.0561    3.0876    0.0000 N.2       1    LIG65    1.0000
     19 C14         1.2123    0.9104    0.0000 C.2       1    LIG65    0.0000
     20 C15         2.0093    1.1239    0.0000 C.ar      1    LIG65    0.0000
     21 O2         -0.3814    0.4832    0.0000 O.2       1    LIG65    0.0000
     22 C16        -1.7570    0.8524    0.0000 C.ar      1    LIG65    0.0000
     23 N5         -2.2859   -0.8264    0.0000 N.ar      1    LIG65    0.0000
     24 N6         -2.7710   -1.4936    0.0000 N.pl3     1    LIG65    0.0000
     25 C17        -2.5575   -2.2906    0.0000 C.3       1    LIG65    0.0000
     26 C18        -1.7605   -2.5043    0.0000 C.3       1    LIG65    0.0000
     27 C19        -3.1407   -2.8740    0.0000 C.3       1    LIG65    0.0000
     28 C20        -2.3437   -3.0876    0.0000 C.3       1    LIG65    0.0000
     29 C21         2.2229    1.9208    0.0000 C.ar      1    LIG65    0.0000
     30 C22         3.0177    2.1329    0.0000 C.ar      1    LIG65    0.0000
     31 C23         3.6014    1.5493    0.0000 C.ar      1    LIG65    0.0000
     32 C24         3.3905    0.7558    0.0000 C.ar      1    LIG65    0.0000
     33 C25         2.5952    0.5378    0.0000 C.ar      1    LIG65    0.0000
     34 C26         4.3984    1.7630    0.0000 C.ar      1    LIG65    0.0000
     35 O3          4.6118    2.5599    0.0000 O.co2     1    LIG65   -0.5000
     36 O4          4.9819    1.1795    0.0000 O.co2     1    LIG65   -0.5000
     37 H1         -5.8738    0.1011    0.0000 H         1    LIG65    0.0000
     38 H2         -5.9243   -1.7901    0.0000 H         1    LIG65    0.0000
     39 H3         -4.1936    0.9402    0.0000 H         1    LIG65    0.0000
     40 H4         -3.6973    2.7870    0.0000 H         1    LIG65    0.0000
     41 H5         -1.8486    3.2825    0.0000 H         1    LIG65    0.0000
     42 H6         -0.4844    2.8585    0.0000 H         1    LIG65    0.0000
     43 H7          0.9303   -0.1425    0.0000 H         1    LIG65    0.0000
     44 H8         -0.9840    0.0839    0.0000 H         1    LIG65    0.0000
     45 H9         -1.7226   -3.5936    0.0000 H         1    LIG65    0.0000
     46 H10        -1.3177   -2.0834   -0.9027 H         1    LIG65    0.0000
     47 H11        -1.3177   -2.0834    0.9027 H         1    LIG65    0.0000
     48 H12        -2.6288   -3.8363    0.0000 H         1    LIG65    0.0000
     49 H13        -3.7346   -2.7309    0.9027 H         1    LIG65    0.0000
     50 H14        -3.7346   -2.7309   -0.9027 H         1    LIG65    0.0000
     51 H15        -3.2679   -3.6655    0.0000 H         1    LIG65    0.0000
     52 H16        -1.7577   -3.2604   -0.9027 H         1    LIG65    0.0000
     53 H17        -1.7577   -3.2604    0.9027 H         1    LIG65    0.0000
     54 H18         1.4526    2.6920    0.0000 H         1    LIG65    0.0000
     55 H19         3.3003    3.1856    0.0000 H         1    LIG65    0.0000
     56 H20         4.1642   -0.0119    0.0000 H         1    LIG65    0.0000
     57 H21         2.3160   -0.5158    0.0000 H         1    LIG65    0.0000
@<TRIPOS>BOND
     1    2    1 2
     2    2    3 ar
     3    3    4 1
     4    5    4 2
     5    6    5 2
     6    2    7 1
     7    7    6 ar
     8    7    8 ar
     9    9    8 1
    10   10    9 ar
    11   10   11 ar
    12   11   12 ar
    13   12   13 ar
    14   13   14 2
    15   14   15 am
    16   15   16 1
    17   17   16 1
    18   17   18 1
    19   16   19 2
    20   19   20 1
    21   15   21 2
    22    9   22 ar
    23   13   22 ar
    24    8   23 ar
    25    6   24 ar
    26   23   24 ar
    27   24   25 1
    28   25   26 1
    29   25   27 1
    30   25   28 1
    31   29   20 ar
    32   30   29 ar
    33   31   30 ar
    34   32   31 ar
    35   33   32 ar
    36   20   33 ar
    37   31   34 1
    38   34   35 am
    39   34   36 am
    40    3   37 1
    41    4   38 1
    42   10   39 1
    43   11   40 1
    44   12   41 1
    45   14   42 1
    46   19   43 1
    47   22   44 1
    48   26   45 1
    49   26   46 1
    50   26   47 1
    51   27   48 1
    52   27   49 1
    53   27   50 1
    54   28   51 1
    55   28   52 1
    56   28   53 1
    57   29   54 1
    58   30   55 1
    59   32   56 1
    60   33   57 1
@<TRIPOS>SUBSTRUCTURE
     1    LIG65    1   GROUP 1   LIG 1
@<TRIPOS>MOLECULE
50436570
   36    38    1     0     0
SMALL
USER_CHARGES


@<TRIPOS>ATOM
      1 C1         -2.4630  -12.8710   -0.2690 C.2       1    LIG66    0.0000
      2 C2         -2.5720  -14.0210    0.5320 C.2       1    LIG66    0.0000
      3 C3         -1.4060  -14.5540    1.1240 C.2       1    LIG66    0.0000
      4 C4         -0.1450  -13.9400    0.9570 C.2       1    LIG66    0.0000
      5 C5         -0.0710  -12.7760    0.1590 C.2       1    LIG66    0.0000
      6 C6         -1.2190  -12.2460   -0.4520 C.2       1    LIG66    0.0000
      7 N1         -3.7980  -14.5900    0.6640 N.pl3     1    LIG66    0.0000
      8 C7         -4.3250  -15.1080    1.8000 C.2       1    LIG66    0.0000
      9 N2         -5.5720  -15.6320    1.7480 N.2       1    LIG66    0.0000
     10 C8         -6.1710  -16.1640    2.8400 C.2       1    LIG66    0.0000
     11 C9         -5.5000  -16.1800    4.0700 C.2       1    LIG66    0.0000
     12 C10        -4.2070  -15.6300    4.1200 C.2       1    LIG66    0.0000
     13 N3         -3.6690  -15.1140    2.9880 N.2       1    LIG66    0.0000
     14 C11        -3.4470  -15.5910    5.3000 C.2       1    LIG66    0.0000
     15 N4         -3.8750  -16.0690    6.4830 N.2       1    LIG66    0.0000
     16 C12        -2.9690  -15.9130    7.4560 C.2       1    LIG66    0.0000
     17 C13        -1.8090  -15.3000    7.0030 C.2       1    LIG66    0.0000
     18 S1         -1.8540  -14.9050    5.3210 S.3       1    LIG66    0.0000
     19 C14         1.0490  -14.5310    1.6180 C.3       1    LIG66    0.0000
     20 C15        -3.1850  -16.3520    8.8390 C.3       1    LIG66    0.0000
     21 F1          2.2180  -13.8450    1.3810 F         1    LIG66    0.0000
     22 F2          0.8690  -14.5580    2.9810 F         1    LIG66    0.0000
     23 F3          1.2440  -15.8190    1.1790 F         1    LIG66    0.0000
     24 O1         -3.1070  -15.2440    9.7280 O.3       1    LIG66    0.0000
     25 O2         -1.1340  -11.1340   -1.2150 O.3       1    LIG66    0.0000
     26 H1         -3.2930  -12.4800   -0.7170 H         1    LIG66    0.0000
     27 H2         -1.4720  -15.4040    1.6860 H         1    LIG66    0.0000
     28 H3          0.8250  -12.3080    0.0180 H         1    LIG66    0.0000
     29 H4         -4.3730  -14.5850   -0.1170 H         1    LIG66    0.0000
     30 H5         -7.1110  -16.5520    2.7660 H         1    LIG66    0.0000
     31 H6         -5.9450  -16.5800    4.8980 H         1    LIG66    0.0000
     32 H7         -1.0090  -15.1000    7.6040 H         1    LIG66    0.0000
     33 H8         -4.1710  -16.8100    8.9280 H         1    LIG66    0.0000
     34 H9         -2.4270  -17.0870    9.1110 H         1    LIG66    0.0000
     35 H10        -3.2500  -15.4720   10.6700 H         1    LIG66    0.0000
     36 H11        -0.2320  -10.7580   -1.2920 H         1    LIG66    0.0000
@<TRIPOS>BOND
     1    1    2 1
     2    1    6 2
     3    1   26 1
     4    2    3 2
     5    2    7 1
     6    3    4 1
     7    3   27 1
     8    4    5 2
     9    4   19 1
    10    5    6 1
    11    5   28 1
    12    6   25 1
    13    7    8 1
    14    7   29 1
    15    8    9 1
    16    8   13 2
    17    9   10 2
    18   10   11 1
    19   10   30 1
    20   11   12 2
    21   11   31 1
    22   12   13 1
    23   12   14 1
    24   14   15 2
    25   14   18 1
    26   15   16 1
    27   16   17 2
    28   16   20 1
    29   17   18 1
    30   17   32 1
    31   19   21 1
    32   19   22 1
    33   19   23 1
    34   20   24 1
    35   20   33 1
    36   20   34 1
    37   24   35 1
    38   25   36 1
@<TRIPOS>SUBSTRUCTURE
     1    LIG66    1   GROUP 1   LIG 1
@<TRIPOS>MOLECULE
50436568
   38    40    1     0     0
SMALL
USER_CHARGES


@<TRIPOS>ATOM
      1 C1         11.9770  -12.3660   -0.1760 C.2       1    LIG67    0.0000
      2 C2         11.8720  -13.4760    0.6800 C.2       1    LIG67    0.0000
      3 C3         13.0320  -13.9450    1.3320 C.2       1    LIG67    0.0000
      4 C4         14.2800  -13.3050    1.1700 C.2       1    LIG67    0.0000
      5 C5         14.3490  -12.1830    0.3140 C.2       1    LIG67    0.0000
      6 C6         13.2080  -11.7110   -0.3630 C.2       1    LIG67    0.0000
      7 N1         10.6520  -14.0640    0.7950 N.pl3     1    LIG67    0.0000
      8 C7         10.1150  -14.6170    1.9090 C.2       1    LIG67    0.0000
      9 N2          8.8680  -15.1370    1.8200 N.2       1    LIG67    0.0000
     10 C8          8.2510  -15.7040    2.8840 C.2       1    LIG67    0.0000
     11 C9          8.9030  -15.7670    4.1220 C.2       1    LIG67    0.0000
     12 C10        10.1980  -15.2230    4.2100 C.2       1    LIG67    0.0000
     13 N3         10.7530  -14.6670    3.1050 N.2       1    LIG67    0.0000
     14 C11        10.9420  -15.2380    5.3990 C.2       1    LIG67    0.0000
     15 N4         10.4950  -15.7610    6.5550 N.2       1    LIG67    0.0000
     16 C12        11.3900  -15.6570    7.5460 C.2       1    LIG67    0.0000
     17 C13        12.5630  -15.0410    7.1320 C.2       1    LIG67    0.0000
     18 S1         12.5430  -14.5720    5.4680 S.3       1    LIG67    0.0000
     19 C14        15.4680  -13.8280    1.8950 C.3       1    LIG67    0.0000
     20 C15        11.1530  -16.1520    8.9050 C.3       1    LIG67    0.0000
     21 F1         16.6270  -13.1250    1.6560 F         1    LIG67    0.0000
     22 F2         15.2490  -13.7890    3.2520 F         1    LIG67    0.0000
     23 F3         15.7080  -15.1310    1.5310 F         1    LIG67    0.0000
     24 O1         11.2360  -15.0840    9.8420 O.3       1    LIG67    0.0000
     25 C16        13.2820  -10.5480   -1.2610 C.3       1    LIG67    0.0000
     26 H1         11.1490  -12.0260   -0.6670 H         1    LIG67    0.0000
     27 H2         12.9750  -14.7670    1.9340 H         1    LIG67    0.0000
     28 H3         15.2400  -11.7040    0.1760 H         1    LIG67    0.0000
     29 H4         10.0830  -14.0450    0.0100 H         1    LIG67    0.0000
     30 H5          7.3110  -16.0870    2.7820 H         1    LIG67    0.0000
     31 H6          8.4470  -16.1960    4.9280 H         1    LIG67    0.0000
     32 H7         13.3580  -14.8750    7.7500 H         1    LIG67    0.0000
     33 H8         10.1600  -16.5990    8.9640 H         1    LIG67    0.0000
     34 H9         11.8980  -16.9090    9.1530 H         1    LIG67    0.0000
     35 H10        11.0780  -15.3490   10.7720 H         1    LIG67    0.0000
     36 H11        14.2960  -10.1470   -1.3050 H         1    LIG67    0.0000
     37 H12        12.9790  -10.8440   -2.2670 H         1    LIG67    0.0000
     38 H13        12.6120   -9.7660   -0.9020 H         1    LIG67    0.0000
@<TRIPOS>BOND
     1    1    2 1
     2    1    6 2
     3    1   26 1
     4    2    3 2
     5    2    7 1
     6    3    4 1
     7    3   27 1
     8    4    5 2
     9    4   19 1
    10    5    6 1
    11    5   28 1
    12    6   25 1
    13    7    8 1
    14    7   29 1
    15    8    9 1
    16    8   13 2
    17    9   10 2
    18   10   11 1
    19   10   30 1
    20   11   12 2
    21   11   31 1
    22   12   13 1
    23   12   14 1
    24   14   15 2
    25   14   18 1
    26   15   16 1
    27   16   17 2
    28   16   20 1
    29   17   18 1
    30   17   32 1
    31   19   21 1
    32   19   22 1
    33   19   23 1
    34   20   24 1
    35   20   33 1
    36   20   34 1
    37   24   35 1
    38   25   36 1
    39   25   37 1
    40   25   38 1
@<TRIPOS>SUBSTRUCTURE
     1    LIG67    1   GROUP 1   LIG 1
@<TRIPOS>MOLECULE
51476380
   59    62    1     0     0
SMALL
USER_CHARGES


@<TRIPOS>ATOM
      1 O1         -4.2051    0.6890    0.0000 O.2       1    LIG68    0.0000
      2 C1         -4.2051   -0.1357    0.0000 C.2       1    LIG68    0.0000
      3 N1         -4.9194   -0.5481    0.0000 N.am      1    LIG68    0.0000
      4 C2         -4.9194   -1.3731    0.0000 C.2       1    LIG68    0.0000
      5 N2         -4.2051   -1.7857    0.0000 N.2       1    LIG68    0.0000
      6 C3         -3.4906   -1.3731    0.0000 C.ar      1    LIG68    0.0000
      7 C4         -3.4906   -0.5481    0.0000 C.ar      1    LIG68    0.0000
      8 C5         -2.7059   -0.2932    0.0000 C.ar      1    LIG68    0.0000
      9 C6         -2.4509    0.4911    0.0000 C.ar      1    LIG68    0.0000
     10 C7         -3.0030    1.1042    0.0000 C.ar      1    LIG68    0.0000
     11 C8         -2.7480    1.8888    0.0000 C.ar      1    LIG68    0.0000
     12 C9         -1.9411    2.0604    0.0000 C.ar      1    LIG68    0.0000
     13 C10        -1.3890    1.4472    0.0000 C.ar      1    LIG68    0.0000
     14 N3         -0.5821    1.6188    0.0000 N.am      1    LIG68    0.0000
     15 C11        -0.0301    1.0058    0.0000 C.2       1    LIG68    0.0000
     16 C12         0.7766    1.1773    0.0000 C.2       1    LIG68    0.0000
     17 C13         1.0315    1.9619    0.0000 C.2       1    LIG68    0.0000
     18 N4          1.2865    2.7465    0.0000 N.2       1    LIG68    1.0000
     19 C14         1.3602    0.5938    0.0000 C.2       1    LIG68    0.0000
     20 C15         2.1573    0.8072    0.0000 C.ar      1    LIG68    0.0000
     21 O2         -0.2850    0.2211    0.0000 O.2       1    LIG68    0.0000
     22 C16        -1.6439    0.6626    0.0000 C.ar      1    LIG68    0.0000
     23 N5         -2.2209   -0.9607    0.0000 N.ar      1    LIG68    0.0000
     24 N6         -2.7059   -1.6279    0.0000 N.pl3     1    LIG68    0.0000
     25 C17        -2.4509   -2.4125    0.0000 C.3       1    LIG68    0.0000
     26 C18        -1.6439   -2.5843    0.0000 C.3       1    LIG68    0.0000
     27 C19        -3.0030   -3.0258    0.0000 C.3       1    LIG68    0.0000
     28 C20        -2.1960   -3.1972    0.0000 C.3       1    LIG68    0.0000
     29 C21         2.3711    1.6043    0.0000 C.ar      1    LIG68    0.0000
     30 C22         3.1660    1.8167    0.0000 C.ar      1    LIG68    0.0000
     31 C23         3.7498    1.2329    0.0000 C.ar      1    LIG68    0.0000
     32 C24         3.5388    0.4393    0.0000 C.ar      1    LIG68    0.0000
     33 C25         2.7434    0.2212    0.0000 C.ar      1    LIG68    0.0000
     34 N7          3.3798    2.6138    0.0000 N.pl3     1    LIG68    0.0000
     35 O3          4.1769    2.8273    0.0000 O.2       1    LIG68    0.0000
     36 O4          2.7962    3.1972    0.0000 O.2       1    LIG68    0.0000
     37 N8          4.1222   -0.1440    0.0000 N.pl3     1    LIG68    0.0000
     38 O5          3.9087   -0.9411    0.0000 O.2       1    LIG68    0.0000
     39 O6          4.9194    0.0695    0.0000 O.2       1    LIG68    0.0000
     40 H1         -5.8114   -0.0331    0.0000 H         1    LIG68    0.0000
     41 H2         -5.8634   -1.9180    0.0000 H         1    LIG68    0.0000
     42 H3         -4.0692    0.8776    0.0000 H         1    LIG68    0.0000
     43 H4         -3.4774    2.6988    0.0000 H         1    LIG68    0.0000
     44 H5         -1.6043    3.0971    0.0000 H         1    LIG68    0.0000
     45 H6         -0.2639    2.5984    0.0000 H         1    LIG68    0.0000
     46 H7          1.0780   -0.4590    0.0000 H         1    LIG68    0.0000
     47 H8         -0.9145   -0.1474    0.0000 H         1    LIG68    0.0000
     48 H9         -1.5492   -3.6702    0.0000 H         1    LIG68    0.0000
     49 H10        -1.2237   -2.1409   -0.9027 H         1    LIG68    0.0000
     50 H11        -1.2237   -2.1409    0.9027 H         1    LIG68    0.0000
     51 H12        -2.4415   -3.9601    0.0000 H         1    LIG68    0.0000
     52 H13        -3.6036   -2.9140    0.9027 H         1    LIG68    0.0000
     53 H14        -3.6036   -2.9140   -0.9027 H         1    LIG68    0.0000
     54 H15        -1.1062   -3.1783    0.0000 H         1    LIG68    0.0000
     55 H16        -2.5932   -3.6613    0.9027 H         1    LIG68    0.0000
     56 H17        -2.5932   -3.6613   -0.9027 H         1    LIG68    0.0000
     57 H18         1.6007    2.3754    0.0000 H         1    LIG68    0.0000
     58 H19         4.8024    1.5160    0.0000 H         1    LIG68    0.0000
     59 H20         2.4644   -0.8325    0.0000 H         1    LIG68    0.0000
@<TRIPOS>BOND
     1    2    1 2
     2    2    3 ar
     3    3    4 1
     4    5    4 2
     5    6    5 1
     6    7    6 ar
     7    2    7 1
     8    7    8 ar
     9    9    8 1
    10   10    9 ar
    11   10   11 ar
    12   11   12 ar
    13   12   13 ar
    14   13   14 2
    15   14   15 am
    16   15   16 1
    17   16   17 2
    18   17   18 1
    19   16   19 1
    20   19   20 2
    21   15   21 2
    22   13   22 ar
    23    9   22 ar
    24    8   23 ar
    25   23   24 ar
    26    6   24 ar
    27   24   25 1
    28   25   26 1
    29   25   27 1
    30   25   28 1
    31   29   20 ar
    32   30   29 ar
    33   31   30 ar
    34   32   31 ar
    35   33   32 ar
    36   20   33 ar
    37   30   34 1
    38   34   35 2
    39   34   36 2
    40   32   37 1
    41   37   38 2
    42   37   39 2
    43    3   40 1
    44    4   41 1
    45   10   42 1
    46   11   43 1
    47   12   44 1
    48   14   45 1
    49   19   46 1
    50   22   47 1
    51   26   48 1
    52   26   49 1
    53   26   50 1
    54   27   51 1
    55   27   52 1
    56   27   53 1
    57   28   54 1
    58   28   55 1
    59   28   56 1
    60   29   57 1
    61   31   58 1
    62   33   59 1
@<TRIPOS>SUBSTRUCTURE
     1    LIG68    1   GROUP 1   LIG 1
@<TRIPOS>MOLECULE
50436567
   32    34    1     0     0
SMALL
USER_CHARGES


@<TRIPOS>ATOM
      1 C1          4.8630  -12.4940    0.0690 C.2       1    LIG69    0.0000
      2 C2          4.8360  -13.7800    0.6370 C.2       1    LIG69    0.0000
      3 C3          6.0550  -14.3900    1.0030 C.2       1    LIG69    0.0000
      4 C4          7.2920  -13.7270    0.8420 C.2       1    LIG69    0.0000
      5 C5          7.2850  -12.4280    0.2840 C.2       1    LIG69    0.0000
      6 C6          6.0800  -11.8170   -0.1040 C.2       1    LIG69    0.0000
      7 N1          3.6300  -14.3920    0.7640 N.pl3     1    LIG69    0.0000
      8 C7          3.2120  -15.1350    1.8170 C.2       1    LIG69    0.0000
      9 N2          1.9670  -15.6630    1.7710 N.2       1    LIG69    0.0000
     10 C8          1.4680  -16.4110    2.7830 C.2       1    LIG69    0.0000
     11 C9          2.2460  -16.6580    3.9230 C.2       1    LIG69    0.0000
     12 C10         3.5380  -16.1040    3.9670 C.2       1    LIG69    0.0000
     13 N3          3.9720  -15.3640    2.9180 N.2       1    LIG69    0.0000
     14 C11         4.4000  -16.2880    5.0600 C.2       1    LIG69    0.0000
     15 S1          5.9880  -15.5900    5.0830 S.3       1    LIG69    0.0000
     16 C12         6.1850  -16.3130    6.6410 C.2       1    LIG69    0.0000
     17 C13         5.0710  -17.0270    7.0530 C.2       1    LIG69    0.0000
     18 N4          4.0790  -17.0030    6.1550 N.2       1    LIG69    0.0000
     19 O1          6.0870  -10.5780   -0.6430 O.3       1    LIG69    0.0000
     20 C14         8.5460  -14.4090    1.2570 C.3       1    LIG69    0.0000
     21 F1          9.6830  -13.6600    1.0600 F         1    LIG69    0.0000
     22 F2          8.4970  -14.7170    2.5960 F         1    LIG69    0.0000
     23 F3          8.7060  -15.5760    0.5490 F         1    LIG69    0.0000
     24 H1          3.9930  -12.0430   -0.2170 H         1    LIG69    0.0000
     25 H2          6.0470  -15.3340    1.3920 H         1    LIG69    0.0000
     26 H3          8.1610  -11.9230    0.1530 H         1    LIG69    0.0000
     27 H4          2.9860  -14.2470    0.0550 H         1    LIG69    0.0000
     28 H5          0.5260  -16.7950    2.7160 H         1    LIG69    0.0000
     29 H6          1.8770  -17.2210    4.6900 H         1    LIG69    0.0000
     30 H7          7.0340  -16.2220    7.1990 H         1    LIG69    0.0000
     31 H8          5.0130  -17.5190    7.9450 H         1    LIG69    0.0000
     32 H9          6.9750  -10.1740   -0.7320 H         1    LIG69    0.0000
@<TRIPOS>BOND
     1    1    2 1
     2    1    6 2
     3    1   24 1
     4    2    3 2
     5    2    7 1
     6    3    4 1
     7    3   25 1
     8    4    5 2
     9    4   20 1
    10    5    6 1
    11    5   26 1
    12    6   19 1
    13    7    8 1
    14    7   27 1
    15    8    9 1
    16    8   13 2
    17    9   10 2
    18   10   11 1
    19   10   28 1
    20   11   12 2
    21   11   29 1
    22   12   13 1
    23   12   14 1
    24   14   15 1
    25   14   18 2
    26   15   16 1
    27   16   17 2
    28   16   30 1
    29   17   18 1
    30   17   31 1
    31   19   32 1
    32   20   21 1
    33   20   22 1
    34   20   23 1
@<TRIPOS>SUBSTRUCTURE
     1    LIG69    1   GROUP 1   LIG 1
@<TRIPOS>MOLECULE
50948462
   63    66    1     0     0
SMALL
USER_CHARGES


@<TRIPOS>ATOM
      1 C1         23.3040    2.4580    0.3620 C.3       1    LIG70    0.0000
      2 C2         24.1660    3.5720   -0.2700 C.3       1    LIG70    0.0000
      3 C3         24.1100    1.6450    1.3960 C.3       1    LIG70    0.0000
      4 N1         21.8580    3.9120    1.9880 N.2       1    LIG70    0.0000
      5 N2         20.5550    4.0000    2.0350 N.pl3     1    LIG70    0.0000
      6 C4         19.9420    3.2250    1.1120 C.2       1    LIG70    0.0000
      7 N3         18.6220    3.0640    0.8690 N.am      1    LIG70    0.0000
      8 C5         22.1300    3.0470    0.9990 C.2       1    LIG70    0.0000
      9 C6         20.9780    2.6070    0.4420 C.2       1    LIG70    0.0000
     10 C7         21.2050    1.6680   -0.6340 C.3       1    LIG70    0.0000
     11 N4         22.6480    1.6200   -0.6290 N.am      1    LIG70    0.0000
     12 C8         23.3030    0.8200   -1.5130 C.2       1    LIG70    0.0000
     13 N5         24.6510    0.7610   -1.5320 N.am      1    LIG70    0.0000
     14 O1         22.6470    0.1320   -2.3280 O.2       1    LIG70    0.0000
     15 C9         17.6190    3.6870    1.5440 C.2       1    LIG70    0.0000
     16 C10        16.2660    3.4430    1.2040 C.2       1    LIG70    0.0000
     17 O2         17.8890    4.4900    2.4700 O.2       1    LIG70    0.0000
     18 C11        15.2490    4.3350    1.6160 C.2       1    LIG70    0.0000
     19 C12        13.9040    4.1000    1.2820 C.2       1    LIG70    0.0000
     20 C13        13.5540    2.9670    0.5310 C.2       1    LIG70    0.0000
     21 C14        14.5500    2.0690    0.1150 C.2       1    LIG70    0.0000
     22 C15        15.8940    2.3050    0.4500 C.2       1    LIG70    0.0000
     23 C16        25.4090   -0.0570   -2.4180 C.3       1    LIG70    0.0000
     24 C17        25.2210   -1.5570   -2.0780 C.3       1    LIG70    0.0000
     25 N6         26.0990   -2.4460   -2.8710 N.3       1    LIG70    1.0000
     26 C18        26.0360   -3.8140   -2.3250 C.3       1    LIG70    0.0000
     27 C19        25.6970   -2.4720   -4.2900 C.3       1    LIG70    0.0000
     28 C20        26.8310    0.3500   -2.3240 C.2       1    LIG70    0.0000
     29 C21        27.5070    0.8410   -3.4610 C.2       1    LIG70    0.0000
     30 C22        28.8550    1.2290   -3.3790 C.2       1    LIG70    0.0000
     31 C23        29.5420    1.1320   -2.1570 C.2       1    LIG70    0.0000
     32 C24        28.8800    0.6450   -1.0180 C.2       1    LIG70    0.0000
     33 C25        27.5320    0.2570   -1.1020 C.2       1    LIG70    0.0000
     34 H1         23.5920    4.1030   -1.0310 H         1    LIG70    0.0000
     35 H2         24.4780    4.2800    0.5000 H         1    LIG70    0.0000
     36 H3         25.0570    3.1510   -0.7320 H         1    LIG70    0.0000
     37 H4         23.5000    0.8300    1.7900 H         1    LIG70    0.0000
     38 H5         25.0050    1.2250    0.9400 H         1    LIG70    0.0000
     39 H6         24.4150    2.2910    2.2210 H         1    LIG70    0.0000
     40 H7         20.0740    4.5620    2.6630 H         1    LIG70    0.0000
     41 H8         18.3730    2.4580    0.1550 H         1    LIG70    0.0000
     42 H9         20.7690    0.6950   -0.4010 H         1    LIG70    0.0000
     43 H10        20.8190    2.0560   -1.5790 H         1    LIG70    0.0000
     44 H11        25.1340    1.3270   -0.9140 H         1    LIG70    0.0000
     45 H12        15.4820    5.1660    2.1620 H         1    LIG70    0.0000
     46 H13        13.1810    4.7540    1.5850 H         1    LIG70    0.0000
     47 H14        12.5780    2.7960    0.2880 H         1    LIG70    0.0000
     48 H15        14.2970    1.2440   -0.4290 H         1    LIG70    0.0000
     49 H16        16.5990    1.6340    0.1410 H         1    LIG70    0.0000
     50 H17        25.0430    0.1150   -3.4320 H         1    LIG70    0.0000
     51 H18        25.4380   -1.6980   -1.0170 H         1    LIG70    0.0000
     52 H19        24.1800   -1.8370   -2.2480 H         1    LIG70    0.0000
     53 H20        26.6960   -4.4700   -2.8950 H         1    LIG70    0.0000
     54 H21        26.3660   -3.8100   -1.2850 H         1    LIG70    0.0000
     55 H22        25.0160   -4.1990   -2.3760 H         1    LIG70    0.0000
     56 H23        26.3270   -3.1740   -4.8380 H         1    LIG70    0.0000
     57 H24        24.6540   -2.7790   -4.3860 H         1    LIG70    0.0000
     58 H25        25.8220   -1.4850   -4.7330 H         1    LIG70    0.0000
     59 H26        27.0180    0.9150   -4.3530 H         1    LIG70    0.0000
     60 H27        29.3360    1.5820   -4.2070 H         1    LIG70    0.0000
     61 H28        30.5200    1.4140   -2.0980 H         1    LIG70    0.0000
     62 H29        29.3770    0.5730   -0.1300 H         1    LIG70    0.0000
     63 H30        27.0590   -0.0960   -0.2690 H         1    LIG70    0.0000
@<TRIPOS>BOND
     1    1    2 1
     2    1    3 1
     3    1    8 1
     4    1   11 1
     5    2   34 1
     6    2   35 1
     7    2   36 1
     8    3   37 1
     9    3   38 1
    10    3   39 1
    11    4    5 1
    12    4    8 2
    13    5    6 1
    14    5   40 1
    15    6    7 1
    16    6    9 2
    17    7   15 1
    18    7   41 1
    19    8    9 1
    20    9   10 1
    21   10   11 1
    22   10   42 1
    23   10   43 1
    24   11   12 1
    25   12   13 1
    26   12   14 2
    27   23   13 1
    28   13   44 1
    29   15   16 1
    30   15   17 2
    31   16   18 2
    32   16   22 1
    33   18   19 1
    34   18   45 1
    35   19   20 2
    36   19   46 1
    37   20   21 1
    38   20   47 1
    39   21   22 2
    40   21   48 1
    41   22   49 1
    42   23   24 1
    43   23   28 1
    44   23   50 1
    45   24   25 1
    46   24   51 1
    47   24   52 1
    48   25   26 1
    49   25   27 1
    50   26   53 1
    51   26   54 1
    52   26   55 1
    53   27   56 1
    54   27   57 1
    55   27   58 1
    56   28   29 2
    57   28   33 1
    58   29   30 1
    59   29   59 1
    60   30   31 2
    61   30   60 1
    62   31   32 1
    63   31   61 1
    64   32   33 2
    65   32   62 1
    66   33   63 1
@<TRIPOS>SUBSTRUCTURE
     1    LIG70    1   GROUP 1   LIG 1
@<TRIPOS>MOLECULE
51476386
   57    60    1     0     0
SMALL
USER_CHARGES


@<TRIPOS>ATOM
      1 O1         -4.3105    0.9146    0.0000 O.2       1    LIG71    0.0000
      2 C1         -4.3105    0.0896    0.0000 C.2       1    LIG71    0.0000
      3 N1         -5.0250   -0.3229    0.0000 N.am      1    LIG71    0.0000
      4 C2         -5.0250   -1.1478    0.0000 C.2       1    LIG71    0.0000
      5 N2         -4.3105   -1.5603    0.0000 N.2       1    LIG71    0.0000
      6 C3         -3.5961   -1.1478    0.0000 C.ar      1    LIG71    0.0000
      7 C4         -3.5961   -0.3229    0.0000 C.ar      1    LIG71    0.0000
      8 C5         -2.8115   -0.0679    0.0000 C.ar      1    LIG71    0.0000
      9 C6         -2.5565    0.7166    0.0000 C.ar      1    LIG71    0.0000
     10 C7         -3.1086    1.3297    0.0000 C.ar      1    LIG71    0.0000
     11 C8         -2.8536    2.1143    0.0000 C.ar      1    LIG71    0.0000
     12 C9         -2.0466    2.2859    0.0000 C.ar      1    LIG71    0.0000
     13 C10        -1.4946    1.6728    0.0000 C.ar      1    LIG71    0.0000
     14 N3         -0.6876    1.8443    0.0000 N.am      1    LIG71    0.0000
     15 C11        -0.1356    1.2312    0.0000 C.2       1    LIG71    0.0000
     16 C12         0.6713    1.4028    0.0000 C.2       1    LIG71    0.0000
     17 C13         0.9262    2.1873    0.0000 C.2       1    LIG71    0.0000
     18 N4          1.1811    2.9720    0.0000 N.2       1    LIG71    1.0000
     19 C14         1.2548    0.8192    0.0000 C.2       1    LIG71    0.0000
     20 C15         2.0519    1.0328    0.0000 C.ar      1    LIG71    0.0000
     21 C16         2.2657    1.8300    0.0000 C.ar      1    LIG71    0.0000
     22 C17         3.0606    2.0421    0.0000 C.ar      1    LIG71    0.0000
     23 C18         3.6444    1.4584    0.0000 C.ar      1    LIG71    0.0000
     24 C19         3.4334    0.6649    0.0000 C.ar      1    LIG71    0.0000
     25 C20         2.6380    0.4468    0.0000 C.ar      1    LIG71    0.0000
     26 O2         -0.3906    0.4466    0.0000 O.2       1    LIG71    0.0000
     27 C21        -1.7496    0.8882    0.0000 C.ar      1    LIG71    0.0000
     28 N5         -2.3264   -0.7352    0.0000 N.ar      1    LIG71    0.0000
     29 N6         -2.8115   -1.4028    0.0000 N.pl3     1    LIG71    0.0000
     30 C22        -2.5565   -2.1873    0.0000 C.3       1    LIG71    0.0000
     31 C23        -1.7496   -2.3589    0.0000 C.3       1    LIG71    0.0000
     32 C24        -3.1086   -2.8005    0.0000 C.3       1    LIG71    0.0000
     33 C25        -2.3016   -2.9720    0.0000 C.3       1    LIG71    0.0000
     34 N7          4.4414    1.6720    0.0000 N.pl3     1    LIG71    0.0000
     35 O3          5.0250    1.0885    0.0000 O.2       1    LIG71    0.0000
     36 O4          4.6551    2.4692    0.0000 O.2       1    LIG71    0.0000
     37 H1         -5.9170    0.1921    0.0000 H         1    LIG71    0.0000
     38 H2         -5.9690   -1.6928    0.0000 H         1    LIG71    0.0000
     39 H3         -4.1748    1.1031    0.0000 H         1    LIG71    0.0000
     40 H4         -3.5830    2.9243    0.0000 H         1    LIG71    0.0000
     41 H5         -1.7098    3.3226    0.0000 H         1    LIG71    0.0000
     42 H6         -0.3693    2.8239    0.0000 H         1    LIG71    0.0000
     43 H7          0.9727   -0.2337    0.0000 H         1    LIG71    0.0000
     44 H8          1.4954    2.6012    0.0000 H         1    LIG71    0.0000
     45 H9          3.3432    3.0948    0.0000 H         1    LIG71    0.0000
     46 H10         4.2071   -0.1029    0.0000 H         1    LIG71    0.0000
     47 H11         2.3590   -0.6069    0.0000 H         1    LIG71    0.0000
     48 H12        -1.0202    0.0782    0.0000 H         1    LIG71    0.0000
     49 H13        -1.6547   -3.4448    0.0000 H         1    LIG71    0.0000
     50 H14        -1.3295   -1.9154   -0.9027 H         1    LIG71    0.0000
     51 H15        -1.3295   -1.9154    0.9027 H         1    LIG71    0.0000
     52 H16        -2.5472   -3.7348    0.0000 H         1    LIG71    0.0000
     53 H17        -3.7092   -2.6886    0.9027 H         1    LIG71    0.0000
     54 H18        -3.7092   -2.6886   -0.9027 H         1    LIG71    0.0000
     55 H19        -1.2118   -2.9531    0.0000 H         1    LIG71    0.0000
     56 H20        -2.6988   -3.4361    0.9027 H         1    LIG71    0.0000
     57 H21        -2.6988   -3.4361   -0.9027 H         1    LIG71    0.0000
@<TRIPOS>BOND
     1    2    1 2
     2    2    3 ar
     3    3    4 2
     4    5    4 1
     5    6    5 2
     6    2    7 1
     7    7    6 ar
     8    7    8 ar
     9    9    8 1
    10   10    9 ar
    11   10   11 ar
    12   11   12 ar
    13   12   13 ar
    14   13   14 2
    15   14   15 am
    16   15   16 1
    17   16   17 2
    18   17   18 1
    19   16   19 1
    20   19   20 2
    21   21   20 ar
    22   22   21 ar
    23   23   22 ar
    24   24   23 ar
    25   20   25 ar
    26   25   24 ar
    27   15   26 2
    28    9   27 ar
    29   13   27 ar
    30    8   28 ar
    31    6   29 ar
    32   28   29 ar
    33   29   30 1
    34   30   31 1
    35   30   32 1
    36   30   33 1
    37   23   34 1
    38   34   35 2
    39   34   36 2
    40    3   37 1
    41    4   38 1
    42   10   39 1
    43   11   40 1
    44   12   41 1
    45   14   42 1
    46   19   43 1
    47   21   44 1
    48   22   45 1
    49   24   46 1
    50   25   47 1
    51   27   48 1
    52   31   49 1
    53   31   50 1
    54   31   51 1
    55   32   52 1
    56   32   53 1
    57   32   54 1
    58   33   55 1
    59   33   56 1
    60   33   57 1
@<TRIPOS>SUBSTRUCTURE
     1    LIG71    1   GROUP 1   LIG 1
@<TRIPOS>MOLECULE
50948468
   62    65    1     0     0
SMALL
USER_CHARGES


@<TRIPOS>ATOM
      1 C1         12.0400   -6.6770    0.5670 C.3       1    LIG72    0.0000
      2 C2         13.0410   -5.6220    0.0530 C.3       1    LIG72    0.0000
      3 C3         12.7060   -7.6230    1.5880 C.3       1    LIG72    0.0000
      4 N1         10.6110   -5.1930    2.1830 N.2       1    LIG72    0.0000
      5 N2          9.3190   -5.0030    2.1570 N.pl3     1    LIG72    0.0000
      6 C4          8.7090   -5.6790    1.1570 C.2       1    LIG72    0.0000
      7 N3          7.3990   -5.7220    0.8240 N.am      1    LIG72    0.0000
      8 C5         10.8790   -6.0250    1.1660 C.2       1    LIG72    0.0000
      9 C6          9.7340   -6.3420    0.5170 C.2       1    LIG72    0.0000
     10 C7          9.9530   -7.2400   -0.5960 C.3       1    LIG72    0.0000
     11 N4         11.3840   -7.3960   -0.5080 N.am      1    LIG72    0.0000
     12 C8         12.0450   -8.1970   -1.3820 C.2       1    LIG72    0.0000
     13 O1         13.3960   -8.3260   -1.3010 O.3       1    LIG72    0.0000
     14 O2         11.4110   -8.8150   -2.2680 O.2       1    LIG72    0.0000
     15 C9          6.4020   -5.0570    1.4670 C.2       1    LIG72    0.0000
     16 C10         5.0610   -5.1720    1.0240 C.2       1    LIG72    0.0000
     17 O3          6.6670   -4.3410    2.4630 O.2       1    LIG72    0.0000
     18 C11         3.9910   -4.7780    1.8600 C.2       1    LIG72    0.0000
     19 C12         2.6580   -4.8890    1.4280 C.2       1    LIG72    0.0000
     20 C13         2.3740   -5.3950    0.1500 C.2       1    LIG72    0.0000
     21 C14         3.4230   -5.7890   -0.6950 C.2       1    LIG72    0.0000
     22 C15         4.7550   -5.6780   -0.2610 C.2       1    LIG72    0.0000
     23 C16        14.0520   -9.5300   -1.7190 C.3       1    LIG72    0.0000
     24 C17        13.9140  -10.6190   -0.6290 C.3       1    LIG72    0.0000
     25 C18        15.4770   -9.2130   -1.9650 C.2       1    LIG72    0.0000
     26 C19        16.2640   -8.6160   -0.9580 C.2       1    LIG72    0.0000
     27 C20        17.6170   -8.3150   -1.1910 C.2       1    LIG72    0.0000
     28 C21        18.1960   -8.6060   -2.4370 C.2       1    LIG72    0.0000
     29 C22        17.4210   -9.1970   -3.4490 C.2       1    LIG72    0.0000
     30 C23        16.0690   -9.4980   -3.2140 C.2       1    LIG72    0.0000
     31 N5         12.5040  -10.9910   -0.3810 N.3       1    LIG72    1.0000
     32 C24        11.9870  -11.8730   -1.4460 C.3       1    LIG72    0.0000
     33 C25        12.3830  -11.6750    0.9180 C.3       1    LIG72    0.0000
     34 H1         12.5700   -4.9970   -0.7080 H         1    LIG72    0.0000
     35 H2         13.3740   -4.9910    0.8790 H         1    LIG72    0.0000
     36 H3         13.9120   -6.1120   -0.3830 H         1    LIG72    0.0000
     37 H4         12.0030   -8.4000    1.8940 H         1    LIG72    0.0000
     38 H5         13.5820   -8.0950    1.1450 H         1    LIG72    0.0000
     39 H6         13.0210   -7.0590    2.4670 H         1    LIG72    0.0000
     40 H7          8.8430   -4.4370    2.7860 H         1    LIG72    0.0000
     41 H8          7.1540   -6.2710    0.0650 H         1    LIG72    0.0000
     42 H9          9.4350   -8.1880   -0.4410 H         1    LIG72    0.0000
     43 H10         9.6550   -6.7770   -1.5380 H         1    LIG72    0.0000
     44 H11         4.1750   -4.4080    2.7940 H         1    LIG72    0.0000
     45 H12         1.8960   -4.6010    2.0430 H         1    LIG72    0.0000
     46 H13         1.4060   -5.4760   -0.1640 H         1    LIG72    0.0000
     47 H14         3.2180   -6.1560   -1.6240 H         1    LIG72    0.0000
     48 H15         5.5000   -5.9660   -0.8970 H         1    LIG72    0.0000
     49 H16        13.6030   -9.8950   -2.6460 H         1    LIG72    0.0000
     50 H17        14.4820  -11.5060   -0.9190 H         1    LIG72    0.0000
     51 H18        14.3400  -10.2280    0.2970 H         1    LIG72    0.0000
     52 H19        15.8500   -8.3960   -0.0520 H         1    LIG72    0.0000
     53 H20        18.1780   -7.8830   -0.4560 H         1    LIG72    0.0000
     54 H21        19.1780   -8.3880   -2.6080 H         1    LIG72    0.0000
     55 H22        17.8410   -9.4080   -4.3550 H         1    LIG72    0.0000
     56 H23        15.5150   -9.9270   -3.9560 H         1    LIG72    0.0000
     57 H24        10.9490  -12.1330   -1.2330 H         1    LIG72    0.0000
     58 H25        12.0200  -11.3640   -2.4080 H         1    LIG72    0.0000
     59 H26        12.5780  -12.7870   -1.5050 H         1    LIG72    0.0000
     60 H27        11.3420  -11.9420    1.1000 H         1    LIG72    0.0000
     61 H28        12.9930  -12.5800    0.9310 H         1    LIG72    0.0000
     62 H29        12.7140  -11.0090    1.7160 H         1    LIG72    0.0000
@<TRIPOS>BOND
     1    1    2 1
     2    1    3 1
     3    1    8 1
     4    1   11 1
     5    2   34 1
     6    2   35 1
     7    2   36 1
     8    3   37 1
     9    3   38 1
    10    3   39 1
    11    4    5 1
    12    4    8 2
    13    5    6 1
    14    5   40 1
    15    6    7 1
    16    6    9 2
    17    7   15 1
    18    7   41 1
    19    8    9 1
    20    9   10 1
    21   10   11 1
    22   10   42 1
    23   10   43 1
    24   11   12 1
    25   12   13 1
    26   12   14 2
    27   23   13 1
    28   15   16 1
    29   15   17 2
    30   16   18 2
    31   16   22 1
    32   18   19 1
    33   18   44 1
    34   19   20 2
    35   19   45 1
    36   20   21 1
    37   20   46 1
    38   21   22 2
    39   21   47 1
    40   22   48 1
    41   23   24 1
    42   23   25 1
    43   23   49 1
    44   24   31 1
    45   24   50 1
    46   24   51 1
    47   25   26 2
    48   25   30 1
    49   26   27 1
    50   26   52 1
    51   27   28 2
    52   27   53 1
    53   28   29 1
    54   28   54 1
    55   29   30 2
    56   29   55 1
    57   30   56 1
    58   31   32 1
    59   31   33 1
    60   32   57 1
    61   32   58 1
    62   32   59 1
    63   33   60 1
    64   33   61 1
    65   33   62 1
@<TRIPOS>SUBSTRUCTURE
     1    LIG72    1   GROUP 1   LIG 1
@<TRIPOS>MOLECULE
50375328
   27    29    1     0     0
SMALL
USER_CHARGES


@<TRIPOS>ATOM
      1 C1         -2.5550    0.0130    1.0740 C.2       1    LIG73    0.0000
      2 C2         -2.5050   -1.3780    0.8870 C.2       1    LIG73    0.0000
      3 C3         -0.3390    0.2370    0.0910 C.2       1    LIG73    0.0000
      4 C4         -1.4810    0.8320    0.6690 C.2       1    LIG73    0.0000
      5 C5         -0.2800   -1.1580   -0.1010 C.2       1    LIG73    0.0000
      6 C6         -1.3730   -1.9680    0.2990 C.2       1    LIG73    0.0000
      7 N1         -1.3190   -3.3120    0.1150 N.2       1    LIG73    0.0000
      8 C7         -0.2510   -3.9340   -0.4440 C.2       1    LIG73    0.0000
      9 C8          0.8580   -3.1790   -0.8570 C.2       1    LIG73    0.0000
     10 C9          0.8380   -1.7860   -0.6830 C.2       1    LIG73    0.0000
     11 C10        -1.5550    2.1900    0.8810 C.2       1    LIG73    0.0000
     12 C11        -1.3430    3.1020   -0.0780 C.2       1    LIG73    0.0000
     13 C12        -1.4240    4.4540    0.1150 C.2       1    LIG73    0.0000
     14 N2         -1.1950    5.1590   -0.9550 N.2       1    LIG73    0.0000
     15 C13        -0.9380    4.4060   -1.9880 C.2       1    LIG73    0.0000
     16 S1         -0.9650    2.7010   -1.6920 S.3       1    LIG73    0.0000
     17 O1         -1.6930    4.9920    1.2120 O.2       1    LIG73    0.0000
     18 N3         -0.6720    4.9220   -3.1930 N.pl3     1    LIG73    0.0000
     19 H1         -3.3830    0.4280    1.5060 H         1    LIG73    0.0000
     20 H2         -3.2910   -1.9590    1.1800 H         1    LIG73    0.0000
     21 H3          0.4520    0.8210   -0.1870 H         1    LIG73    0.0000
     22 H4         -0.2550   -4.9470   -0.5630 H         1    LIG73    0.0000
     23 H5          1.6670   -3.6370   -1.2780 H         1    LIG73    0.0000
     24 H6          1.6430   -1.2330   -0.9830 H         1    LIG73    0.0000
     25 H7         -1.8050    2.5020    1.7910 H         1    LIG73    0.0000
     26 H8         -0.4840    4.3350   -3.9420 H         1    LIG73    0.0000
     27 H9         -0.6680    5.8830   -3.3160 H         1    LIG73    0.0000
@<TRIPOS>BOND
     1    1    2 1
     2    1    4 2
     3    1   19 1
     4    2    6 2
     5    2   20 1
     6    3    4 1
     7    3    5 2
     8    3   21 1
     9    4   11 1
    10    5    6 1
    11    5   10 1
    12    6    7 1
    13    7    8 2
    14    8    9 1
    15    8   22 1
    16    9   10 2
    17    9   23 1
    18   10   24 1
    19   11   12 2
    20   11   25 1
    21   12   13 1
    22   12   16 1
    23   13   14 1
    24   13   17 2
    25   14   15 2
    26   15   16 1
    27   15   18 1
    28   18   26 1
    29   18   27 1
@<TRIPOS>SUBSTRUCTURE
     1    LIG73    1   GROUP 1   LIG 1
@<TRIPOS>MOLECULE
51476378
   55    58    1     0     0
SMALL
USER_CHARGES


@<TRIPOS>ATOM
      1 O1         -3.5769    0.8228    0.0000 O.2       1    LIG74    0.0000
      2 C1         -3.5769   -0.0019    0.0000 C.2       1    LIG74    0.0000
      3 N1         -4.2915   -0.4141    0.0000 N.am      1    LIG74    0.0000
      4 C2         -4.2915   -1.2424    0.0000 C.2       1    LIG74    0.0000
      5 N2         -3.5751   -1.6505    0.0000 N.1       1    LIG74    0.0000
      6 C3         -2.8652   -1.2387    0.0000 C.ar      1    LIG74    0.0000
      7 C4         -2.8652   -0.4136    0.0000 C.ar      1    LIG74    0.0000
      8 C5         -2.0806   -0.1589    0.0000 C.ar      1    LIG74    0.0000
      9 C6         -1.8671    0.6378    0.0000 C.ar      1    LIG74    0.0000
     10 C7         -2.4502    1.2215    0.0000 C.ar      1    LIG74    0.0000
     11 C8         -2.2367    2.0158    0.0000 C.ar      1    LIG74    0.0000
     12 C9         -1.4395    2.2294    0.0000 C.ar      1    LIG74    0.0000
     13 C10        -0.8580    1.6501    0.0000 C.ar      1    LIG74    0.0000
     14 N3         -0.0611    1.8637    0.0000 N.am      1    LIG74    0.0000
     15 C11         0.5221    1.2801    0.0000 C.2       1    LIG74    0.0000
     16 C12         1.3191    1.4936    0.0000 C.2       1    LIG74    0.0000
     17 C13         1.5325    2.2906    0.0000 C.2       1    LIG74    0.0000
     18 N4          1.7462    3.0875    0.0000 N.2       1    LIG74    1.0000
     19 C14         1.9024    0.9104    0.0000 C.2       1    LIG74    0.0000
     20 C15         2.6995    1.1238    0.0000 C.ar      1    LIG74    0.0000
     21 O2          0.3086    0.4832    0.0000 O.2       1    LIG74    0.0000
     22 C16        -1.0667    0.8524    0.0000 C.ar      1    LIG74    0.0000
     23 N5         -1.5956   -0.8264    0.0000 N.ar      1    LIG74    0.0000
     24 N6         -2.0806   -1.4936    0.0000 N.pl3     1    LIG74    0.0000
     25 C17        -1.8672   -2.2906    0.0000 C.3       1    LIG74    0.0000
     26 C18        -1.0702   -2.5042    0.0000 C.3       1    LIG74    0.0000
     27 C19        -2.4504   -2.8740    0.0000 C.3       1    LIG74    0.0000
     28 C20        -1.6537   -3.0875    0.0000 C.3       1    LIG74    0.0000
     29 C21         2.9131    1.9208    0.0000 C.ar      1    LIG74    0.0000
     30 C22         3.7079    2.1329    0.0000 C.ar      1    LIG74    0.0000
     31 C23         4.2915    1.5492    0.0000 C.ar      1    LIG74    0.0000
     32 C24         4.0804    0.7559    0.0000 C.ar      1    LIG74    0.0000
     33 C25         3.2852    0.5379    0.0000 C.ar      1    LIG74    0.0000
     34 H1         -5.1834    0.1011    0.0000 H         1    LIG74    0.0000
     35 H2         -5.2339   -1.7901    0.0000 H         1    LIG74    0.0000
     36 H3         -3.5032    0.9401    0.0000 H         1    LIG74    0.0000
     37 H4         -3.0071    2.7869    0.0000 H         1    LIG74    0.0000
     38 H5         -1.1584    3.2825    0.0000 H         1    LIG74    0.0000
     39 H6          0.2056    2.8586    0.0000 H         1    LIG74    0.0000
     40 H7          1.6202   -0.1424    0.0000 H         1    LIG74    0.0000
     41 H8         -0.2936    0.0840    0.0000 H         1    LIG74    0.0000
     42 H9         -1.0322   -3.5935    0.0000 H         1    LIG74    0.0000
     43 H10        -0.6275   -2.0833   -0.9027 H         1    LIG74    0.0000
     44 H11        -0.6275   -2.0833    0.9027 H         1    LIG74    0.0000
     45 H12        -1.9385   -3.8363    0.0000 H         1    LIG74    0.0000
     46 H13        -3.0443   -2.7309    0.9027 H         1    LIG74    0.0000
     47 H14        -3.0443   -2.7309   -0.9027 H         1    LIG74    0.0000
     48 H15        -2.5781   -3.6651    0.0000 H         1    LIG74    0.0000
     49 H16        -1.0678   -3.2605   -0.9027 H         1    LIG74    0.0000
     50 H17        -1.0678   -3.2605    0.9027 H         1    LIG74    0.0000
     51 H18         2.1428    2.6920    0.0000 H         1    LIG74    0.0000
     52 H19         3.9906    3.1856    0.0000 H         1    LIG74    0.0000
     53 H20         5.3441    1.8322    0.0000 H         1    LIG74    0.0000
     54 H21         4.8540   -0.0120    0.0000 H         1    LIG74    0.0000
     55 H22         3.0060   -0.5157    0.0000 H         1    LIG74    0.0000
@<TRIPOS>BOND
     1    2    1 2
     2    2    3 ar
     3    3    4 1
     4    5    4 2
     5    6    5 2
     6    2    7 1
     7    7    6 ar
     8    7    8 ar
     9    9    8 1
    10   10    9 ar
    11   10   11 ar
    12   11   12 ar
    13   12   13 ar
    14   13   14 2
    15   14   15 am
    16   15   16 1
    17   17   16 1
    18   17   18 1
    19   16   19 2
    20   19   20 1
    21   15   21 2
    22    9   22 ar
    23   13   22 ar
    24    8   23 ar
    25    6   24 ar
    26   23   24 ar
    27   24   25 1
    28   25   26 1
    29   25   27 1
    30   25   28 1
    31   29   20 ar
    32   30   29 ar
    33   31   30 ar
    34   32   31 ar
    35   33   32 ar
    36   20   33 ar
    37    3   34 1
    38    4   35 1
    39   10   36 1
    40   11   37 1
    41   12   38 1
    42   14   39 1
    43   19   40 1
    44   22   41 1
    45   26   42 1
    46   26   43 1
    47   26   44 1
    48   27   45 1
    49   27   46 1
    50   27   47 1
    51   28   48 1
    52   28   49 1
    53   28   50 1
    54   29   51 1
    55   30   52 1
    56   31   53 1
    57   32   54 1
    58   33   55 1
@<TRIPOS>SUBSTRUCTURE
     1    LIG74    1   GROUP 1   LIG 1
@<TRIPOS>MOLECULE
50357147
   49    51    1     0     0
SMALL
USER_CHARGES


@<TRIPOS>ATOM
      1 C1         -0.8210    3.4770    0.7310 C.2       1    LIG75    0.0000
      2 C2         -2.0830    1.4640    0.6430 C.2       1    LIG75    0.0000
      3 C3          0.2370    1.4090    0.1580 C.2       1    LIG75    0.0000
      4 C4          0.3550    2.7980    0.3710 C.2       1    LIG75    0.0000
      5 N1         -1.9870    2.7970    0.8520 N.2       1    LIG75    0.0000
      6 N2         -0.9600    0.7940    0.2990 N.2       1    LIG75    0.0000
      7 N3         -3.2270    0.7450    0.7560 N.pl3     1    LIG75    0.0000
      8 C5         -4.4900    1.1530    1.0780 C.2       1    LIG75    0.0000
      9 C6         -4.8930    2.4750    1.3690 C.2       1    LIG75    0.0000
     10 C7         -6.2310    2.7670    1.6840 C.2       1    LIG75    0.0000
     11 C8         -7.2100    1.7490    1.7200 C.2       1    LIG75    0.0000
     12 C9         -6.8040    0.4280    1.4290 C.2       1    LIG75    0.0000
     13 C10        -5.4660    0.1390    1.1130 C.2       1    LIG75    0.0000
     14 O1         -0.7840    4.8200    0.9600 O.3       1    LIG75    0.0000
     15 C11        -1.9790    5.5070    1.3420 C.3       1    LIG75    0.0000
     16 C12        -1.6720    6.9970    1.5600 C.3       1    LIG75    0.0000
     17 C13        -1.1790    7.6420    0.2510 C.3       1    LIG75    0.0000
     18 C14        -0.8940    9.1370    0.4630 C.3       1    LIG75    0.0000
     19 C15        -2.1520    9.8580    0.9700 C.3       1    LIG75    0.0000
     20 C16        -2.6460    9.2160    2.2750 C.3       1    LIG75    0.0000
     21 C17        -2.9330    7.7220    2.0630 C.3       1    LIG75    0.0000
     22 N4          1.2840    0.6460   -0.1860 N.pl3     1    LIG75    0.0000
     23 N5          1.4740    3.4910    0.2590 N.2       1    LIG75    0.0000
     24 O2          2.5170    3.0530   -0.0310 O.2       1    LIG75    0.0000
     25 C18        -8.5550    2.0540    2.0400 C.2       1    LIG75    0.0000
     26 O3         -8.9150    3.2240    2.2980 O.2       1    LIG75    0.0000
     27 N6         -9.5160    1.1160    2.0880 N.am      1    LIG75    0.0000
     28 H1         -3.1280   -0.2030    0.5800 H         1    LIG75    0.0000
     29 H2         -4.2280    3.2440    1.3560 H         1    LIG75    0.0000
     30 H3         -6.4870    3.7350    1.8890 H         1    LIG75    0.0000
     31 H4         -7.4790   -0.3370    1.4430 H         1    LIG75    0.0000
     32 H5         -5.2040   -0.8270    0.9080 H         1    LIG75    0.0000
     33 H6         -2.7360    5.4030    0.5620 H         1    LIG75    0.0000
     34 H7         -2.3630    5.0840    2.2730 H         1    LIG75    0.0000
     35 H8         -0.8890    7.0830    2.3150 H         1    LIG75    0.0000
     36 H9         -1.9390    7.5260   -0.5230 H         1    LIG75    0.0000
     37 H10        -0.2630    7.1490   -0.0760 H         1    LIG75    0.0000
     38 H11        -0.0910    9.2530    1.1920 H         1    LIG75    0.0000
     39 H12        -0.5810    9.5810   -0.4830 H         1    LIG75    0.0000
     40 H13        -2.9360    9.7940    0.2140 H         1    LIG75    0.0000
     41 H14        -1.9180   10.9070    1.1510 H         1    LIG75    0.0000
     42 H15        -1.8860    9.3330    3.0480 H         1    LIG75    0.0000
     43 H16        -3.5600    9.7150    2.5980 H         1    LIG75    0.0000
     44 H17        -3.7360    7.6090    1.3330 H         1    LIG75    0.0000
     45 H18        -3.2500    7.2830    3.0090 H         1    LIG75    0.0000
     46 H19         1.1650   -0.3060   -0.3220 H         1    LIG75    0.0000
     47 H20         2.1600    1.0480   -0.2980 H         1    LIG75    0.0000
     48 H21       -10.4230    1.3740    2.3130 H         1    LIG75    0.0000
     49 H22        -9.3060    0.1900    1.9000 H         1    LIG75    0.0000
@<TRIPOS>BOND
     1    1    4 1
     2    1    5 2
     3    1   14 1
     4    2    5 1
     5    2    6 2
     6    2    7 1
     7    3    4 2
     8    3    6 1
     9    3   22 1
    10    4   23 1
    11    7    8 1
    12    7   28 1
    13    8    9 2
    14    8   13 1
    15    9   10 1
    16    9   29 1
    17   10   11 2
    18   10   30 1
    19   11   12 1
    20   11   25 1
    21   12   13 2
    22   12   31 1
    23   13   32 1
    24   14   15 1
    25   15   16 1
    26   15   33 1
    27   15   34 1
    28   16   17 1
    29   16   21 1
    30   16   35 1
    31   17   18 1
    32   17   36 1
    33   17   37 1
    34   18   19 1
    35   18   38 1
    36   18   39 1
    37   19   20 1
    38   19   40 1
    39   19   41 1
    40   20   21 1
    41   20   42 1
    42   20   43 1
    43   21   44 1
    44   21   45 1
    45   22   46 1
    46   22   47 1
    47   23   24 2
    48   25   26 2
    49   25   27 1
    50   27   48 1
    51   27   49 1
@<TRIPOS>SUBSTRUCTURE
     1    LIG75    1   GROUP 1   LIG 1
@<TRIPOS>MOLECULE
50436574
   38    40    1     0     0
SMALL
USER_CHARGES


@<TRIPOS>ATOM
      1 C1         13.5360    3.0740    0.6520 C.2       1    LIG76    0.0000
      2 C2         13.5500    1.6680    0.5830 C.2       1    LIG76    0.0000
      3 C3         14.7740    0.9790    0.6660 C.2       1    LIG76    0.0000
      4 C4         15.9840    1.6860    0.8070 C.2       1    LIG76    0.0000
      5 C5         15.9570    3.0940    0.8680 C.2       1    LIG76    0.0000
      6 C6         14.7370    3.7940    0.7900 C.2       1    LIG76    0.0000
      7 N1         12.3910    0.9870    0.4520 N.pl3     1    LIG76    0.0000
      8 C7         11.8870    0.5850   -0.7370 C.2       1    LIG76    0.0000
      9 N2         10.7110   -0.0850   -0.7500 N.2       1    LIG76    0.0000
     10 C8         10.1450   -0.5120   -1.9040 C.2       1    LIG76    0.0000
     11 C9         10.7770   -0.2640   -3.1300 C.2       1    LIG76    0.0000
     12 C10        12.0000    0.4310   -3.1090 C.2       1    LIG76    0.0000
     13 N3         12.5100    0.8300   -1.9180 N.2       1    LIG76    0.0000
     14 C11        12.7140    0.7320   -4.2800 C.2       1    LIG76    0.0000
     15 N4         12.3040    0.3910   -5.5160 N.2       1    LIG76    0.0000
     16 C12        13.1560    0.7920   -6.4680 C.2       1    LIG76    0.0000
     17 C13        14.2550    1.4590   -5.9440 C.2       1    LIG76    0.0000
     18 S1         14.2200    1.5910   -4.2210 S.3       1    LIG76    0.0000
     19 C14        12.9450    0.5440   -7.8980 C.3       1    LIG76    0.0000
     20 O1         12.8720    1.7740   -8.6080 O.3       1    LIG76    0.0000
     21 C15        17.2530    0.9480    0.8870 C.3       1    LIG76    0.0000
     22 C16        14.7010    5.2640    0.8500 C.3       1    LIG76    0.0000
     23 H1         12.6470    3.5740    0.5940 H         1    LIG76    0.0000
     24 H2         14.7850   -0.0410    0.6210 H         1    LIG76    0.0000
     25 H3         16.8310    3.6120    0.9700 H         1    LIG76    0.0000
     26 H4         11.8840    0.7840    1.2520 H         1    LIG76    0.0000
     27 H5          9.2580   -1.0140   -1.8800 H         1    LIG76    0.0000
     28 H6         10.3560   -0.5820   -4.0040 H         1    LIG76    0.0000
     29 H7         15.0080    1.8370   -6.5190 H         1    LIG76    0.0000
     30 H8         13.7710   -0.0500   -8.2900 H         1    LIG76    0.0000
     31 H9         12.0140   -0.0050   -8.0410 H         1    LIG76    0.0000
     32 H10        12.7190    1.6760   -9.5710 H         1    LIG76    0.0000
     33 H11        18.1000    1.6290    0.9890 H         1    LIG76    0.0000
     34 H12        17.2350    0.2820    1.7510 H         1    LIG76    0.0000
     35 H13        17.3890    0.3550   -0.0180 H         1    LIG76    0.0000
     36 H14        15.7050    5.6790    0.9560 H         1    LIG76    0.0000
     37 H15        14.2570    5.6560   -0.0660 H         1    LIG76    0.0000
     38 H16        14.0990    5.5800    1.7030 H         1    LIG76    0.0000
@<TRIPOS>BOND
     1    1    2 1
     2    1    6 2
     3    1   23 1
     4    2    3 2
     5    2    7 1
     6    3    4 1
     7    3   24 1
     8    4    5 2
     9    4   21 1
    10    5    6 1
    11    5   25 1
    12    6   22 1
    13    7    8 1
    14    7   26 1
    15    8    9 1
    16    8   13 2
    17    9   10 2
    18   10   11 1
    19   10   27 1
    20   11   12 2
    21   11   28 1
    22   12   13 1
    23   12   14 1
    24   14   15 2
    25   14   18 1
    26   15   16 1
    27   16   17 2
    28   16   19 1
    29   17   18 1
    30   17   29 1
    31   19   20 1
    32   19   30 1
    33   19   31 1
    34   20   32 1
    35   21   33 1
    36   21   34 1
    37   21   35 1
    38   22   36 1
    39   22   37 1
    40   22   38 1
@<TRIPOS>SUBSTRUCTURE
     1    LIG76    1   GROUP 1   LIG 1
@<TRIPOS>MOLECULE
50436579
   31    33    1     0     0
SMALL
USER_CHARGES


@<TRIPOS>ATOM
      1 C1          9.9360  -19.5080    0.9600 C.2       1    LIG77    0.0000
      2 C2          9.9520  -20.7580    0.3110 C.2       1    LIG77    0.0000
      3 C3         11.1880  -21.2910   -0.1150 C.2       1    LIG77    0.0000
      4 C4         12.3780  -20.5710    0.0780 C.2       1    LIG77    0.0000
      5 C5         12.3470  -19.3170    0.7100 C.2       1    LIG77    0.0000
      6 C6         11.1250  -18.7790    1.1590 C.2       1    LIG77    0.0000
      7 N1          8.7690  -21.4110    0.1700 N.pl3     1    LIG77    0.0000
      8 C7          8.3620  -22.1170   -0.9120 C.2       1    LIG77    0.0000
      9 N2          7.1350  -22.6880   -0.8760 N.2       1    LIG77    0.0000
     10 C8          6.6450  -23.4020   -1.9170 C.2       1    LIG77    0.0000
     11 C9          7.4140  -23.5680   -3.0770 C.2       1    LIG77    0.0000
     12 C10         8.6870  -22.9710   -3.1120 C.2       1    LIG77    0.0000
     13 N3          9.1120  -22.2680   -2.0330 N.2       1    LIG77    0.0000
     14 C11         9.5380  -23.0750   -4.2230 C.2       1    LIG77    0.0000
     15 S1         11.1050  -22.3300   -4.2310 S.3       1    LIG77    0.0000
     16 C12        11.3030  -22.9750   -5.8230 C.2       1    LIG77    0.0000
     17 C13        10.2040  -23.7000   -6.2560 C.2       1    LIG77    0.0000
     18 N4          9.2240  -23.7470   -5.3460 N.2       1    LIG77    0.0000
     19 C14        11.0740  -17.4720    1.8330 C.3       1    LIG77    0.0000
     20 H1          9.0490  -19.1200    1.2860 H         1    LIG77    0.0000
     21 H2         11.2270  -22.2060   -0.5630 H         1    LIG77    0.0000
     22 H3         13.2670  -20.9600   -0.2390 H         1    LIG77    0.0000
     23 H4         13.2160  -18.8000    0.8470 H         1    LIG77    0.0000
     24 H5          8.1300  -21.3250    0.8930 H         1    LIG77    0.0000
     25 H6          5.7160  -23.8190   -1.8570 H         1    LIG77    0.0000
     26 H7          7.0520  -24.1050   -3.8670 H         1    LIG77    0.0000
     27 H8         12.1420  -22.8370   -6.3850 H         1    LIG77    0.0000
     28 H9         10.1480  -24.1510   -7.1700 H         1    LIG77    0.0000
     29 H10        12.0690  -17.0310    1.9140 H         1    LIG77    0.0000
     30 H11        10.4360  -16.7940    1.2650 H         1    LIG77    0.0000
     31 H12        10.6630  -17.5940    2.8360 H         1    LIG77    0.0000
@<TRIPOS>BOND
     1    1    2 1
     2    1    6 2
     3    1   20 1
     4    2    3 2
     5    2    7 1
     6    3    4 1
     7    3   21 1
     8    4    5 2
     9    4   22 1
    10    5    6 1
    11    5   23 1
    12    6   19 1
    13    7    8 1
    14    7   24 1
    15    8    9 1
    16    8   13 2
    17    9   10 2
    18   10   11 1
    19   10   25 1
    20   11   12 2
    21   11   26 1
    22   12   13 1
    23   12   14 1
    24   14   15 1
    25   14   18 2
    26   15   16 1
    27   16   17 2
    28   16   27 1
    29   17   18 1
    30   17   28 1
    31   19   29 1
    32   19   30 1
    33   19   31 1
@<TRIPOS>SUBSTRUCTURE
     1    LIG77    1   GROUP 1   LIG 1
@<TRIPOS>MOLECULE
51476379
   57    60    1     0     0
SMALL
USER_CHARGES


@<TRIPOS>ATOM
      1 O1         -4.2050    0.9146    0.0000 O.2       1    LIG78    0.0000
      2 C1         -4.2050    0.0896    0.0000 C.2       1    LIG78    0.0000
      3 N1         -4.9195   -0.3229    0.0000 N.am      1    LIG78    0.0000
      4 C2         -4.9195   -1.1478    0.0000 C.2       1    LIG78    0.0000
      5 N2         -4.2050   -1.5603    0.0000 N.2       1    LIG78    0.0000
      6 C3         -3.4906   -1.1478    0.0000 C.ar      1    LIG78    0.0000
      7 C4         -3.4906   -0.3229    0.0000 C.ar      1    LIG78    0.0000
      8 C5         -2.7060   -0.0679    0.0000 C.ar      1    LIG78    0.0000
      9 C6         -2.4510    0.7166    0.0000 C.ar      1    LIG78    0.0000
     10 C7         -3.0031    1.3297    0.0000 C.ar      1    LIG78    0.0000
     11 C8         -2.7481    2.1143    0.0000 C.ar      1    LIG78    0.0000
     12 C9         -1.9411    2.2859    0.0000 C.ar      1    LIG78    0.0000
     13 C10        -1.3891    1.6728    0.0000 C.ar      1    LIG78    0.0000
     14 N3         -0.5820    1.8443    0.0000 N.am      1    LIG78    0.0000
     15 C11        -0.0301    1.2312    0.0000 C.2       1    LIG78    0.0000
     16 C12         0.7768    1.4028    0.0000 C.2       1    LIG78    0.0000
     17 C13         1.0317    2.1873    0.0000 C.2       1    LIG78    0.0000
     18 N4          1.2866    2.9720    0.0000 N.2       1    LIG78    1.0000
     19 O2         -0.2849    0.4466    0.0000 O.2       1    LIG78    0.0000
     20 C14        -1.6439    0.8882    0.0000 C.ar      1    LIG78    0.0000
     21 N5         -2.2210   -0.7352    0.0000 N.ar      1    LIG78    0.0000
     22 N6         -2.7060   -1.4028    0.0000 N.pl3     1    LIG78    0.0000
     23 C15        -2.4510   -2.1873    0.0000 C.3       1    LIG78    0.0000
     24 C16        -1.6439   -2.3589    0.0000 C.3       1    LIG78    0.0000
     25 C17        -3.0031   -2.8005    0.0000 C.3       1    LIG78    0.0000
     26 C18        -2.1961   -2.9720    0.0000 C.3       1    LIG78    0.0000
     27 C19         1.3602    0.8192    0.0000 C.2       1    LIG78    0.0000
     28 C20         2.1574    1.0328    0.0000 C.ar      1    LIG78    0.0000
     29 C21         2.3713    1.8299    0.0000 C.ar      1    LIG78    0.0000
     30 C22         3.1662    2.0421    0.0000 C.ar      1    LIG78    0.0000
     31 C23         3.7499    1.4584    0.0000 C.ar      1    LIG78    0.0000
     32 C24         3.5389    0.6649    0.0000 C.ar      1    LIG78    0.0000
     33 C25         2.7435    0.4467    0.0000 C.ar      1    LIG78    0.0000
     34 N7          4.1224    0.0813    0.0000 N.pl3     1    LIG78    0.0000
     35 O3          3.9089   -0.7157    0.0000 O.2       1    LIG78    0.0000
     36 O4          4.9195    0.2949    0.0000 O.2       1    LIG78    0.0000
     37 H1         -5.8115    0.1921    0.0000 H         1    LIG78    0.0000
     38 H2         -5.8635   -1.6928    0.0000 H         1    LIG78    0.0000
     39 H3         -4.0693    1.1031    0.0000 H         1    LIG78    0.0000
     40 H4         -3.4775    2.9243    0.0000 H         1    LIG78    0.0000
     41 H5         -1.6043    3.3226    0.0000 H         1    LIG78    0.0000
     42 H6         -0.2636    2.8239    0.0000 H         1    LIG78    0.0000
     43 H7         -0.9145    0.0782    0.0000 H         1    LIG78    0.0000
     44 H8         -1.5490   -3.4448    0.0000 H         1    LIG78    0.0000
     45 H9         -1.2238   -1.9154   -0.9027 H         1    LIG78    0.0000
     46 H10        -1.2238   -1.9154    0.9027 H         1    LIG78    0.0000
     47 H11        -2.4417   -3.7348    0.0000 H         1    LIG78    0.0000
     48 H12        -3.6037   -2.6886    0.9027 H         1    LIG78    0.0000
     49 H13        -3.6037   -2.6886   -0.9027 H         1    LIG78    0.0000
     50 H14        -1.1063   -2.9531    0.0000 H         1    LIG78    0.0000
     51 H15        -2.5933   -3.4361    0.9027 H         1    LIG78    0.0000
     52 H16        -2.5933   -3.4361   -0.9027 H         1    LIG78    0.0000
     53 H17         1.0780   -0.2336    0.0000 H         1    LIG78    0.0000
     54 H18         1.6011    2.6011    0.0000 H         1    LIG78    0.0000
     55 H19         3.4488    3.0948    0.0000 H         1    LIG78    0.0000
     56 H20         4.8025    1.7415    0.0000 H         1    LIG78    0.0000
     57 H21         2.4645   -0.6070    0.0000 H         1    LIG78    0.0000
@<TRIPOS>BOND
     1    2    1 2
     2    2    3 ar
     3    3    4 2
     4    5    4 1
     5    6    5 2
     6    7    6 ar
     7    2    7 1
     8    7    8 ar
     9    9    8 1
    10   10    9 ar
    11   10   11 ar
    12   11   12 ar
    13   12   13 ar
    14   13   14 2
    15   14   15 am
    16   15   16 1
    17   16   17 2
    18   17   18 1
    19   15   19 2
    20   13   20 ar
    21    9   20 ar
    22    8   21 ar
    23   21   22 ar
    24    6   22 ar
    25   22   23 1
    26   23   24 1
    27   23   25 1
    28   23   26 1
    29   16   27 1
    30   27   28 1
    31   29   28 ar
    32   30   29 ar
    33   31   30 ar
    34   32   31 ar
    35   33   32 ar
    36   28   33 ar
    37   32   34 1
    38   34   35 2
    39   34   36 2
    40    3   37 1
    41    4   38 1
    42   10   39 1
    43   11   40 1
    44   12   41 1
    45   14   42 1
    46   20   43 1
    47   24   44 1
    48   24   45 1
    49   24   46 1
    50   25   47 1
    51   25   48 1
    52   25   49 1
    53   26   50 1
    54   26   51 1
    55   26   52 1
    56   27   53 1
    57   29   54 1
    58   30   55 1
    59   31   56 1
    60   33   57 1
@<TRIPOS>SUBSTRUCTURE
     1    LIG78    1   GROUP 1   LIG 1
@<TRIPOS>MOLECULE
50077180
   57    60    1     0     0
SMALL
USER_CHARGES


@<TRIPOS>ATOM
      1 C1         13.1640   -9.5710    0.6300 C.2       1    LIG79    0.0000
      2 C2         13.0780  -10.8460    0.0240 C.2       1    LIG79    0.0000
      3 C3         13.8170  -11.9340    0.5130 C.2       1    LIG79    0.0000
      4 C4         14.0190   -9.4260    1.7500 C.2       1    LIG79    0.0000
      5 C5         14.7690  -10.5090    2.2660 C.2       1    LIG79    0.0000
      6 C6         14.6590  -11.7680    1.6230 C.2       1    LIG79    0.0000
      7 N1         15.3730  -12.8260    2.0760 N.2       1    LIG79    0.0000
      8 C7         16.2170  -12.7660    3.1370 C.2       1    LIG79    0.0000
      9 C8         16.3600  -11.5380    3.8100 C.2       1    LIG79    0.0000
     10 C9         15.6350  -10.4040    3.3860 C.2       1    LIG79    0.0000
     11 C10        12.4080   -8.4670    0.1290 C.2       1    LIG79    0.0000
     12 C11        15.8070   -9.2350    4.0970 C.2       1    LIG79    0.0000
     13 O1         14.8530   -8.6000    4.5190 O.2       1    LIG79    0.0000
     14 O2         17.0170   -8.8020    4.4030 O.3       1    LIG79    0.0000
     15 C12        16.9130  -13.9260    3.5310 C.2       1    LIG79    0.0000
     16 N2         16.7340  -15.0710    2.8350 N.am      1    LIG79    0.0000
     17 O3         17.6750  -13.9180    4.5260 O.2       1    LIG79    0.0000
     18 C13        17.3550  -16.3110    3.1560 C.3       1    LIG79    0.0000
     19 C14        18.8650  -16.2550    2.8660 C.3       1    LIG79    0.0000
     20 C15        16.7220  -17.4350    2.3080 C.3       1    LIG79    0.0000
     21 C16        15.2730  -17.5890    2.5530 C.2       1    LIG79    0.0000
     22 C17        14.3380  -17.3030    1.5370 C.2       1    LIG79    0.0000
     23 C18        12.9610  -17.4450    1.7750 C.2       1    LIG79    0.0000
     24 C19        12.5050  -17.8780    3.0320 C.2       1    LIG79    0.0000
     25 C20        13.4300  -18.1690    4.0500 C.2       1    LIG79    0.0000
     26 C21        14.8070  -18.0240    3.8110 C.2       1    LIG79    0.0000
     27 C22        11.1070   -8.6500   -0.3950 C.2       1    LIG79    0.0000
     28 C23        10.3620   -7.5650   -0.8810 C.2       1    LIG79    0.0000
     29 C24        10.9050   -6.2730   -0.8510 C.2       1    LIG79    0.0000
     30 C25        12.2000   -6.0430   -0.3390 C.2       1    LIG79    0.0000
     31 C26        12.9340   -7.1520    0.1430 C.2       1    LIG79    0.0000
     32 C27        12.7440   -4.6590   -0.3220 C.3       1    LIG79    0.0000
     33 F1         14.0170   -4.5600    0.1900 F         1    LIG79    0.0000
     34 F2         12.7860   -4.1510   -1.5990 F         1    LIG79    0.0000
     35 F3         11.9410   -3.8460    0.4420 F         1    LIG79    0.0000
     36 O4         11.1790  -18.0140    3.2550 O.3       1    LIG79    0.0000
     37 H1         12.4830  -10.9930   -0.7920 H         1    LIG79    0.0000
     38 H2         13.7440  -12.8440    0.0570 H         1    LIG79    0.0000
     39 H3         14.0870   -8.5140    2.2040 H         1    LIG79    0.0000
     40 H4         16.9870  -11.4680    4.6140 H         1    LIG79    0.0000
     41 H5         17.0160   -7.9780    4.9320 H         1    LIG79    0.0000
     42 H6         16.1110  -15.0490    2.0920 H         1    LIG79    0.0000
     43 H7         17.2100  -16.5340    4.2160 H         1    LIG79    0.0000
     44 H8         19.3150  -17.2240    3.0830 H         1    LIG79    0.0000
     45 H9         19.0320  -16.0070    1.8170 H         1    LIG79    0.0000
     46 H10        19.3400  -15.5000    3.4930 H         1    LIG79    0.0000
     47 H11        16.9060  -17.2140    1.2540 H         1    LIG79    0.0000
     48 H12        17.2180  -18.3790    2.5430 H         1    LIG79    0.0000
     49 H13        14.6590  -16.9860    0.6210 H         1    LIG79    0.0000
     50 H14        12.2910  -17.2340    1.0350 H         1    LIG79    0.0000
     51 H15        13.1030  -18.4850    4.9630 H         1    LIG79    0.0000
     52 H16        15.4720  -18.2370    4.5550 H         1    LIG79    0.0000
     53 H17        10.6830   -9.5780   -0.4160 H         1    LIG79    0.0000
     54 H18         9.4240   -7.7160   -1.2520 H         1    LIG79    0.0000
     55 H19        10.3530   -5.4910   -1.2050 H         1    LIG79    0.0000
     56 H20        13.8760   -6.9940    0.5030 H         1    LIG79    0.0000
     57 H21        10.9460  -18.3200    4.1560 H         1    LIG79    0.0000
@<TRIPOS>BOND
     1    1    2 2
     2    1    4 1
     3    1   11 1
     4    2    3 1
     5    2   37 1
     6    3    6 2
     7    3   38 1
     8    4    5 2
     9    4   39 1
    10    5    6 1
    11    5   10 1
    12    6    7 1
    13    7    8 2
    14    8    9 1
    15    8   15 1
    16    9   10 2
    17    9   40 1
    18   10   12 1
    19   11   27 2
    20   11   31 1
    21   12   13 2
    22   12   14 1
    23   14   41 1
    24   15   16 1
    25   15   17 2
    26   16   18 1
    27   16   42 1
    28   18   19 1
    29   18   20 1
    30   18   43 1
    31   19   44 1
    32   19   45 1
    33   19   46 1
    34   20   21 1
    35   20   47 1
    36   20   48 1
    37   21   22 2
    38   21   26 1
    39   22   23 1
    40   22   49 1
    41   23   24 2
    42   23   50 1
    43   24   25 1
    44   24   36 1
    45   25   26 2
    46   25   51 1
    47   26   52 1
    48   27   28 1
    49   27   53 1
    50   28   29 2
    51   28   54 1
    52   29   30 1
    53   29   55 1
    54   30   31 2
    55   30   32 1
    56   31   56 1
    57   32   33 1
    58   32   34 1
    59   32   35 1
    60   36   57 1
@<TRIPOS>SUBSTRUCTURE
     1    LIG79    1   GROUP 1   LIG 1
@<TRIPOS>MOLECULE
50077181
   59    62    1     0     0
SMALL
USER_CHARGES


@<TRIPOS>ATOM
      1 C1         13.5340  -25.7510    0.4420 C.2       1    LIG80    0.0000
      2 C2         13.6440  -26.9310   -0.3310 C.2       1    LIG80    0.0000
      3 C3         14.1950  -28.1030    0.2080 C.2       1    LIG80    0.0000
      4 C4         13.9950  -25.7910    1.7800 C.2       1    LIG80    0.0000
      5 C5         14.5430  -26.9640    2.3490 C.2       1    LIG80    0.0000
      6 C6         14.6440  -28.1210    1.5370 C.2       1    LIG80    0.0000
      7 N1         15.1800  -29.2590    2.0390 N.2       1    LIG80    0.0000
      8 C7         15.6430  -29.3760    3.3090 C.2       1    LIG80    0.0000
      9 C8         15.5630  -28.2550    4.1570 C.2       1    LIG80    0.0000
     10 C9         15.0100  -27.0450    3.6870 C.2       1    LIG80    0.0000
     11 C10        12.9760  -24.5580   -0.1100 C.2       1    LIG80    0.0000
     12 C11        14.9380  -25.9850    4.5660 C.2       1    LIG80    0.0000
     13 O1         15.9080  -25.6440    5.2250 O.2       1    LIG80    0.0000
     14 O2         13.8030  -25.3380    4.7630 O.3       1    LIG80    0.0000
     15 C12        16.1810  -30.6060    3.7360 C.2       1    LIG80    0.0000
     16 N2         16.3420  -31.6040    2.8380 N.am      1    LIG80    0.0000
     17 O3         16.5030  -30.7940    4.9320 O.2       1    LIG80    0.0000
     18 C13        16.8430  -32.9010    3.1560 C.3       1    LIG80    0.0000
     19 C14        18.2260  -32.8450    3.5700 C.2       1    LIG80    0.0000
     20 C15        16.7230  -33.8150    1.9150 C.3       1    LIG80    0.0000
     21 C16        15.3290  -33.9530    1.4400 C.2       1    LIG80    0.0000
     22 O4         19.1270  -32.3080    2.7470 O.3       1    LIG80    0.0000
     23 O5         18.5480  -33.3040    4.6560 O.2       1    LIG80    0.0000
     24 C17        20.4900  -32.2130    3.1610 C.3       1    LIG80    0.0000
     25 C18        14.3680  -34.6050    2.2390 C.2       1    LIG80    0.0000
     26 C19        13.0390  -34.7300    1.7960 C.2       1    LIG80    0.0000
     27 C20        12.6610  -34.2020    0.5490 C.2       1    LIG80    0.0000
     28 C21        13.6140  -33.5520   -0.2540 C.2       1    LIG80    0.0000
     29 C22        14.9420  -33.4310    0.1890 C.2       1    LIG80    0.0000
     30 F1         11.4290  -34.3150    0.1390 F         1    LIG80    0.0000
     31 C23        12.1900  -23.6870    0.6790 C.2       1    LIG80    0.0000
     32 C24        11.6420  -22.5140    0.1380 C.2       1    LIG80    0.0000
     33 C25        11.8700  -22.1900   -1.2070 C.2       1    LIG80    0.0000
     34 C26        12.6470  -23.0310   -2.0320 C.2       1    LIG80    0.0000
     35 C27        13.1890  -24.2070   -1.4660 C.2       1    LIG80    0.0000
     36 C28        12.8700  -22.6540   -3.4530 C.3       1    LIG80    0.0000
     37 F2         13.6430  -23.5480   -4.1580 F         1    LIG80    0.0000
     38 F3         11.6680  -22.5600   -4.1120 F         1    LIG80    0.0000
     39 F4         13.5020  -21.4360   -3.5260 F         1    LIG80    0.0000
     40 H1         13.3130  -26.9500   -1.2960 H         1    LIG80    0.0000
     41 H2         14.2650  -28.9420   -0.3690 H         1    LIG80    0.0000
     42 H3         13.9420  -24.9430    2.3460 H         1    LIG80    0.0000
     43 H4         15.9020  -28.3190    5.1200 H         1    LIG80    0.0000
     44 H5         13.8720  -24.6220    5.4270 H         1    LIG80    0.0000
     45 H6         16.0710  -31.4290    1.9230 H         1    LIG80    0.0000
     46 H7         16.2470  -33.3270    3.9670 H         1    LIG80    0.0000
     47 H8         17.3500  -33.4040    1.1200 H         1    LIG80    0.0000
     48 H9         17.1060  -34.8070    2.1630 H         1    LIG80    0.0000
     49 H10        21.0730  -31.7510    2.3650 H         1    LIG80    0.0000
     50 H11        20.5640  -31.5990    4.0600 H         1    LIG80    0.0000
     51 H12        20.8880  -33.2080    3.3650 H         1    LIG80    0.0000
     52 H13        14.6330  -34.9900    3.1460 H         1    LIG80    0.0000
     53 H14        12.3520  -35.2020    2.3840 H         1    LIG80    0.0000
     54 H15        13.3450  -33.1660   -1.1600 H         1    LIG80    0.0000
     55 H16        15.6260  -32.9550   -0.4000 H         1    LIG80    0.0000
     56 H17        11.9990  -23.9050    1.6590 H         1    LIG80    0.0000
     57 H18        11.0750  -21.8980    0.7230 H         1    LIG80    0.0000
     58 H19        11.4660  -21.3340   -1.5890 H         1    LIG80    0.0000
     59 H20        13.7620  -24.8140   -2.0540 H         1    LIG80    0.0000
@<TRIPOS>BOND
     1    1    2 2
     2    1    4 1
     3    1   11 1
     4    2    3 1
     5    2   40 1
     6    3    6 2
     7    3   41 1
     8    4    5 2
     9    4   42 1
    10    5    6 1
    11    5   10 1
    12    6    7 1
    13    7    8 2
    14    8    9 1
    15    8   15 1
    16    9   10 2
    17    9   43 1
    18   10   12 1
    19   11   31 2
    20   11   35 1
    21   12   13 2
    22   12   14 1
    23   14   44 1
    24   15   16 1
    25   15   17 2
    26   18   16 1
    27   16   45 1
    28   18   19 1
    29   18   20 1
    30   18   46 1
    31   19   22 1
    32   19   23 2
    33   20   21 1
    34   20   47 1
    35   20   48 1
    36   21   25 2
    37   21   29 1
    38   22   24 1
    39   24   49 1
    40   24   50 1
    41   24   51 1
    42   25   26 1
    43   25   52 1
    44   26   27 2
    45   26   53 1
    46   27   28 1
    47   27   30 1
    48   28   29 2
    49   28   54 1
    50   29   55 1
    51   31   32 1
    52   31   56 1
    53   32   33 2
    54   32   57 1
    55   33   34 1
    56   33   58 1
    57   34   35 2
    58   34   36 1
    59   35   59 1
    60   36   37 1
    61   36   38 1
    62   36   39 1
@<TRIPOS>SUBSTRUCTURE
     1    LIG80    1   GROUP 1   LIG 1
@<TRIPOS>MOLECULE
51476375
   57    59    1     0     0
SMALL
USER_CHARGES


@<TRIPOS>ATOM
      1 C1         -3.1388   -0.0019    0.0000 C.2       1    LIG81    0.0000
      2 N1         -3.8532   -0.4141    0.0000 N.am      1    LIG81    0.0000
      3 C2         -2.4270   -0.4138    0.0000 C.ar      1    LIG81    0.0000
      4 C3         -2.4270   -1.2387    0.0000 C.ar      1    LIG81    0.0000
      5 N2         -3.1371   -1.6505    0.0000 N.2       1    LIG81    0.0000
      6 C4         -3.8532   -1.2424    0.0000 C.2       1    LIG81    0.0000
      7 N3         -1.6425   -1.4936    0.0000 N.pl3     1    LIG81    0.0000
      8 N4         -1.1576   -0.8263    0.0000 N.ar      1    LIG81    0.0000
      9 C5         -1.6425   -0.1589    0.0000 C.ar      1    LIG81    0.0000
     10 C6         -0.6287    0.8523    0.0000 C.ar      1    LIG81    0.0000
     11 C7         -0.4199    1.6500    0.0000 C.ar      1    LIG81    0.0000
     12 C8         -1.0015    2.2294    0.0000 C.ar      1    LIG81    0.0000
     13 C9         -1.7986    2.0157    0.0000 C.ar      1    LIG81    0.0000
     14 C10        -1.4290    0.6379    0.0000 C.ar      1    LIG81    0.0000
     15 C11        -2.0122    1.2215    0.0000 C.ar      1    LIG81    0.0000
     16 O1         -3.1388    0.8229    0.0000 O.2       1    LIG81    0.0000
     17 C12        -1.4290   -2.2906    0.0000 C.3       1    LIG81    0.0000
     18 C13        -0.6322   -2.5041    0.0000 C.3       1    LIG81    0.0000
     19 C14        -2.0123   -2.8739    0.0000 C.3       1    LIG81    0.0000
     20 C15        -1.2154   -3.0875    0.0000 C.3       1    LIG81    0.0000
     21 N5          0.3769    1.8635    0.0000 N.am      1    LIG81    0.0000
     22 C16         0.9603    1.2802    0.0000 C.2       1    LIG81    0.0000
     23 C17         1.7572    1.4936    0.0000 C.2       1    LIG81    0.0000
     24 O2          0.7467    0.4833    0.0000 O.2       1    LIG81    0.0000
     25 C18         2.3406    0.9104    0.0000 C.2       1    LIG81    0.0000
     26 C19         1.9706    2.2906    0.0000 C.2       1    LIG81    0.0000
     27 N6          2.1842    3.0875    0.0000 N.2       1    LIG81    1.0000
     28 C20         3.1375    1.1238    0.0000 C.3       1    LIG81    0.0000
     29 C21         3.7208    0.5405    0.0000 C.3       1    LIG81    0.0000
     30 C22         3.8532    1.5371    0.0000 C.3       1    LIG81    0.0000
     31 C23         3.1375    1.9499    0.0000 C.3       1    LIG81    0.0000
     32 H1         -4.7451    0.1010    0.0000 H         1    LIG81    0.0000
     33 H2         -4.7956   -1.7900    0.0000 H         1    LIG81    0.0000
     34 H3          0.1443    0.0838    0.0000 H         1    LIG81    0.0000
     35 H4         -0.7205    3.2825    0.0000 H         1    LIG81    0.0000
     36 H5         -2.5690    2.7868    0.0000 H         1    LIG81    0.0000
     37 H6         -3.0652    0.9401    0.0000 H         1    LIG81    0.0000
     38 H7         -0.5942   -3.5934    0.0000 H         1    LIG81    0.0000
     39 H8         -0.1895   -2.0832   -0.9027 H         1    LIG81    0.0000
     40 H9         -0.1895   -2.0832    0.9027 H         1    LIG81    0.0000
     41 H10        -1.5006   -3.8363    0.0000 H         1    LIG81    0.0000
     42 H11        -2.6062   -2.7307    0.9027 H         1    LIG81    0.0000
     43 H12        -2.6062   -2.7307   -0.9027 H         1    LIG81    0.0000
     44 H13        -2.1397   -3.6652    0.0000 H         1    LIG81    0.0000
     45 H14        -0.6295   -3.2604   -0.9027 H         1    LIG81    0.0000
     46 H15        -0.6295   -3.2604    0.9027 H         1    LIG81    0.0000
     47 H16         0.6434    2.8584    0.0000 H         1    LIG81    0.0000
     48 H17         2.0585   -0.1425    0.0000 H         1    LIG81    0.0000
     49 H18         4.6832    1.0522    0.0000 H         1    LIG81    0.0000
     50 H19         3.5776   -0.0534    0.9027 H         1    LIG81    0.0000
     51 H20         3.5776   -0.0534   -0.9027 H         1    LIG81    0.0000
     52 H21         4.6504    0.7938    0.0000 H         1    LIG81    0.0000
     53 H22         3.8685    2.1478   -0.9027 H         1    LIG81    0.0000
     54 H23         3.8685    2.1478    0.9027 H         1    LIG81    0.0000
     55 H24         4.1799    2.2686    0.0000 H         1    LIG81    0.0000
     56 H25         2.6163    2.2686   -0.9027 H         1    LIG81    0.0000
     57 H26         2.6163    2.2686    0.9027 H         1    LIG81    0.0000
@<TRIPOS>BOND
     1    1    2 ar
     2    1    3 1
     3    3    4 ar
     4    4    5 2
     5    5    6 1
     6    2    6 2
     7    4    7 ar
     8    8    7 ar
     9    9    8 ar
    10    3    9 ar
    11   11   10 ar
    12   12   11 ar
    13   13   12 ar
    14   14   10 ar
    15   14    9 1
    16   15   14 ar
    17   15   13 ar
    18    1   16 2
    19    7   17 1
    20   17   18 1
    21   17   19 1
    22   17   20 1
    23   11   21 2
    24   21   22 am
    25   22   23 1
    26   22   24 2
    27   23   25 2
    28   26   23 1
    29   26   27 1
    30   25   28 1
    31   28   29 1
    32   28   30 1
    33   28   31 1
    34    2   32 1
    35    6   33 1
    36   10   34 1
    37   12   35 1
    38   13   36 1
    39   15   37 1
    40   18   38 1
    41   18   39 1
    42   18   40 1
    43   19   41 1
    44   19   42 1
    45   19   43 1
    46   20   44 1
    47   20   45 1
    48   20   46 1
    49   21   47 1
    50   25   48 1
    51   29   49 1
    52   29   50 1
    53   29   51 1
    54   30   52 1
    55   30   53 1
    56   30   54 1
    57   31   55 1
    58   31   56 1
    59   31   57 1
@<TRIPOS>SUBSTRUCTURE
     1    LIG81    1   GROUP 1   LIG 1
@<TRIPOS>MOLECULE
50077204
   60    63    1     0     0
SMALL
USER_CHARGES


@<TRIPOS>ATOM
      1 C1          5.0420   -4.3520    1.6490 C.2       1    LIG82    0.0000
      2 C2          4.6900   -5.1800    0.5590 C.2       1    LIG82    0.0000
      3 C3          5.6540   -5.6880   -0.3200 C.2       1    LIG82    0.0000
      4 C4          6.4190   -4.0530    1.8050 C.2       1    LIG82    0.0000
      5 C5          7.4300   -4.5520    0.9440 C.2       1    LIG82    0.0000
      6 C6          7.0070   -5.3800   -0.1290 C.2       1    LIG82    0.0000
      7 N1          7.9050   -5.8960   -0.9980 N.2       1    LIG82    0.0000
      8 C7          9.2370   -5.6710   -0.9180 C.2       1    LIG82    0.0000
      9 C8          9.7130   -4.8560    0.1250 C.2       1    LIG82    0.0000
     10 C9          8.8280   -4.2820    1.0700 C.2       1    LIG82    0.0000
     11 N2          4.0840   -3.8530    2.5220 N.pl3     1    LIG82    0.0000
     12 C10         9.4260   -3.4780    2.0840 C.2       1    LIG82    0.0000
     13 O1          8.7910   -2.9070    2.9970 O.2       1    LIG82    0.0000
     14 O2         10.7630   -3.2750    2.1270 O.3       1    LIG82    0.0000
     15 C11        10.0940   -6.2630   -1.8670 C.2       1    LIG82    0.0000
     16 N3          9.5670   -7.0400   -2.8410 N.am      1    LIG82    0.0000
     17 O3         11.3340   -6.0930   -1.8110 O.2       1    LIG82    0.0000
     18 C12        10.3290   -7.7280   -3.8320 C.3       1    LIG82    0.0000
     19 C13         9.8880   -7.3020   -5.1360 C.2       1    LIG82    0.0000
     20 C14        10.1250   -9.2530   -3.6780 C.3       1    LIG82    0.0000
     21 C15        10.5690   -9.7530   -2.3600 C.2       1    LIG82    0.0000
     22 O4          8.6080   -7.4620   -5.4730 O.3       1    LIG82    0.0000
     23 O5         10.6920   -6.8020   -5.9100 O.2       1    LIG82    0.0000
     24 C16         8.1540   -7.0150   -6.7510 C.3       1    LIG82    0.0000
     25 C17        11.9300   -9.6890   -1.9970 C.2       1    LIG82    0.0000
     26 C18        12.3540  -10.1470   -0.7370 C.2       1    LIG82    0.0000
     27 C19        11.4200  -10.6750    0.1700 C.2       1    LIG82    0.0000
     28 C20        10.0620  -10.7460   -0.1850 C.2       1    LIG82    0.0000
     29 C21         9.6390  -10.2880   -1.4440 C.2       1    LIG82    0.0000
     30 O6         11.8330  -11.1120    1.3800 O.3       1    LIG82    0.0000
     31 C22         2.6720   -3.8290    2.2430 C.3       1    LIG82    0.0000
     32 C23         2.1660   -2.3770    2.2980 C.3       1    LIG82    0.0000
     33 O7          2.5360   -1.7720    3.5350 O.3       1    LIG82    0.0000
     34 C24         3.9260   -1.8250    3.8480 C.3       1    LIG82    0.0000
     35 C25         4.3830   -3.2900    3.8130 C.3       1    LIG82    0.0000
     36 H1          3.7240   -5.4570    0.4020 H         1    LIG82    0.0000
     37 H2          5.3680   -6.2900   -1.0930 H         1    LIG82    0.0000
     38 H3          6.6830   -3.4260    2.5520 H         1    LIG82    0.0000
     39 H4         10.7190   -4.6840    0.1910 H         1    LIG82    0.0000
     40 H5         11.0500   -2.7060    2.8710 H         1    LIG82    0.0000
     41 H6          8.6030   -7.1470   -2.8550 H         1    LIG82    0.0000
     42 H7         11.3950   -7.5060   -3.7380 H         1    LIG82    0.0000
     43 H8          9.0670   -9.4800   -3.8280 H         1    LIG82    0.0000
     44 H9         10.6910   -9.7690   -4.4560 H         1    LIG82    0.0000
     45 H10         7.0900   -7.2310   -6.8470 H         1    LIG82    0.0000
     46 H11         8.3100   -5.9400   -6.8480 H         1    LIG82    0.0000
     47 H12         8.6960   -7.5340   -7.5440 H         1    LIG82    0.0000
     48 H13        12.6150   -9.3040   -2.6480 H         1    LIG82    0.0000
     49 H14        13.3400  -10.0930   -0.4820 H         1    LIG82    0.0000
     50 H15         9.3810  -11.1280    0.4720 H         1    LIG82    0.0000
     51 H16         8.6500  -10.3390   -1.6910 H         1    LIG82    0.0000
     52 H17        11.1210  -11.4640    1.9530 H         1    LIG82    0.0000
     53 H18         2.1470   -4.4150    2.9990 H         1    LIG82    0.0000
     54 H19         2.4010   -4.2170    1.2650 H         1    LIG82    0.0000
     55 H20         2.6030   -1.8120    1.4730 H         1    LIG82    0.0000
     56 H21         1.0810   -2.3660    2.2010 H         1    LIG82    0.0000
     57 H22         4.4940   -1.2440    3.1210 H         1    LIG82    0.0000
     58 H23         4.0890   -1.4140    4.8450 H         1    LIG82    0.0000
     59 H24         3.8210   -3.8400    4.5680 H         1    LIG82    0.0000
     60 H25         5.4300   -3.3420    4.1000 H         1    LIG82    0.0000
@<TRIPOS>BOND
     1    1    2 2
     2    1    4 1
     3    1   11 1
     4    2    3 1
     5    2   36 1
     6    3    6 2
     7    3   37 1
     8    4    5 2
     9    4   38 1
    10    5    6 1
    11    5   10 1
    12    6    7 1
    13    7    8 2
    14    8    9 1
    15    8   15 1
    16    9   10 2
    17    9   39 1
    18   10   12 1
    19   11   31 1
    20   11   35 1
    21   12   13 2
    22   12   14 1
    23   14   40 1
    24   15   16 1
    25   15   17 2
    26   18   16 1
    27   16   41 1
    28   18   19 1
    29   18   20 1
    30   18   42 1
    31   19   22 1
    32   19   23 2
    33   20   21 1
    34   20   43 1
    35   20   44 1
    36   21   25 2
    37   21   29 1
    38   22   24 1
    39   24   45 1
    40   24   46 1
    41   24   47 1
    42   25   26 1
    43   25   48 1
    44   26   27 2
    45   26   49 1
    46   27   28 1
    47   27   30 1
    48   28   29 2
    49   28   50 1
    50   29   51 1
    51   30   52 1
    52   31   32 1
    53   31   53 1
    54   31   54 1
    55   32   33 1
    56   32   55 1
    57   32   56 1
    58   33   34 1
    59   34   35 1
    60   34   57 1
    61   34   58 1
    62   35   59 1
    63   35   60 1
@<TRIPOS>SUBSTRUCTURE
     1    LIG82    1   GROUP 1   LIG 1
@<TRIPOS>MOLECULE
51476390
   55    58    1     0     0
SMALL
USER_CHARGES


@<TRIPOS>ATOM
      1 O1         -4.0188    0.9146    0.0000 O.2       1    LIG83    0.0000
      2 C1         -4.0188    0.0896    0.0000 C.2       1    LIG83    0.0000
      3 N1         -4.7333   -0.3229    0.0000 N.am      1    LIG83    0.0000
      4 C2         -4.7333   -1.1478    0.0000 C.2       1    LIG83    0.0000
      5 N2         -4.0188   -1.5603    0.0000 N.2       1    LIG83    0.0000
      6 C3         -3.3044   -1.1478    0.0000 C.ar      1    LIG83    0.0000
      7 C4         -3.3044   -0.3229    0.0000 C.ar      1    LIG83    0.0000
      8 C5         -2.5197   -0.0679    0.0000 C.ar      1    LIG83    0.0000
      9 C6         -2.2648    0.7166    0.0000 C.ar      1    LIG83    0.0000
     10 C7         -2.8168    1.3297    0.0000 C.ar      1    LIG83    0.0000
     11 C8         -2.5619    2.1143    0.0000 C.ar      1    LIG83    0.0000
     12 C9         -1.7549    2.2859    0.0000 C.ar      1    LIG83    0.0000
     13 C10        -1.2029    1.6728    0.0000 C.ar      1    LIG83    0.0000
     14 N3         -0.3958    1.8443    0.0000 N.am      1    LIG83    0.0000
     15 C11         0.1560    1.2312    0.0000 C.2       1    LIG83    0.0000
     16 C12         0.9630    1.4028    0.0000 C.2       1    LIG83    0.0000
     17 C13         1.2179    2.1873    0.0000 C.2       1    LIG83    0.0000
     18 N4          1.4728    2.9720    0.0000 N.2       1    LIG83    1.0000
     19 C14         1.5465    0.8192    0.0000 C.2       1    LIG83    0.0000
     20 C15         2.3437    1.0328    0.0000 C.ar      1    LIG83    0.0000
     21 C16         2.5575    1.8300    0.0000 C.ar      1    LIG83    0.0000
     22 C17         3.3524    2.0421    0.0000 C.ar      1    LIG83    0.0000
     23 C18         3.9362    1.4584    0.0000 C.ar      1    LIG83    0.0000
     24 C19         3.7252    0.6649    0.0000 C.ar      1    LIG83    0.0000
     25 C20         2.9297    0.4468    0.0000 C.ar      1    LIG83    0.0000
     26 O2         -0.0988    0.4466    0.0000 O.2       1    LIG83    0.0000
     27 C21        -1.4578    0.8882    0.0000 C.ar      1    LIG83    0.0000
     28 N5         -2.0348   -0.7352    0.0000 N.ar      1    LIG83    0.0000
     29 N6         -2.5197   -1.4028    0.0000 N.pl3     1    LIG83    0.0000
     30 C22        -2.2648   -2.1873    0.0000 C.3       1    LIG83    0.0000
     31 C23        -1.4578   -2.3589    0.0000 C.3       1    LIG83    0.0000
     32 C24        -2.8168   -2.8005    0.0000 C.3       1    LIG83    0.0000
     33 C25        -2.0099   -2.9720    0.0000 C.3       1    LIG83    0.0000
     34 F1          4.7333    1.6720    0.0000 F         1    LIG83    0.0000
     35 H1         -5.6253    0.1921    0.0000 H         1    LIG83    0.0000
     36 H2         -5.6773   -1.6928    0.0000 H         1    LIG83    0.0000
     37 H3         -3.8830    1.1031    0.0000 H         1    LIG83    0.0000
     38 H4         -3.2913    2.9243    0.0000 H         1    LIG83    0.0000
     39 H5         -1.4181    3.3226    0.0000 H         1    LIG83    0.0000
     40 H6         -0.0774    2.8238    0.0000 H         1    LIG83    0.0000
     41 H7          1.2643   -0.2336    0.0000 H         1    LIG83    0.0000
     42 H8          1.7872    2.6012    0.0000 H         1    LIG83    0.0000
     43 H9          3.6350    3.0948    0.0000 H         1    LIG83    0.0000
     44 H10         4.4989   -0.1029    0.0000 H         1    LIG83    0.0000
     45 H11         2.6506   -0.6069    0.0000 H         1    LIG83    0.0000
     46 H12        -0.7284    0.0782    0.0000 H         1    LIG83    0.0000
     47 H13        -1.3629   -3.4448    0.0000 H         1    LIG83    0.0000
     48 H14        -1.0377   -1.9154   -0.9027 H         1    LIG83    0.0000
     49 H15        -1.0377   -1.9154    0.9027 H         1    LIG83    0.0000
     50 H16        -2.2553   -3.7347    0.0000 H         1    LIG83    0.0000
     51 H17        -3.4174   -2.6887    0.9027 H         1    LIG83    0.0000
     52 H18        -3.4174   -2.6887   -0.9027 H         1    LIG83    0.0000
     53 H19        -0.9201   -2.9531    0.0000 H         1    LIG83    0.0000
     54 H20        -2.4071   -3.4361    0.9027 H         1    LIG83    0.0000
     55 H21        -2.4071   -3.4361   -0.9027 H         1    LIG83    0.0000
@<TRIPOS>BOND
     1    2    1 2
     2    2    3 ar
     3    3    4 2
     4    5    4 1
     5    6    5 2
     6    7    6 ar
     7    2    7 1
     8    7    8 ar
     9    9    8 1
    10   10    9 ar
    11   10   11 ar
    12   11   12 ar
    13   12   13 ar
    14   13   14 2
    15   14   15 am
    16   15   16 1
    17   16   17 2
    18   17   18 1
    19   16   19 1
    20   19   20 2
    21   21   20 ar
    22   22   21 ar
    23   23   22 ar
    24   24   23 ar
    25   25   24 ar
    26   20   25 ar
    27   15   26 2
    28   13   27 ar
    29    9   27 ar
    30    8   28 ar
    31   28   29 ar
    32    6   29 ar
    33   29   30 1
    34   30   31 1
    35   30   32 1
    36   30   33 1
    37   23   34 1
    38    3   35 1
    39    4   36 1
    40   10   37 1
    41   11   38 1
    42   12   39 1
    43   14   40 1
    44   19   41 1
    45   21   42 1
    46   22   43 1
    47   24   44 1
    48   25   45 1
    49   27   46 1
    50   31   47 1
    51   31   48 1
    52   31   49 1
    53   32   50 1
    54   32   51 1
    55   32   52 1
    56   33   53 1
    57   33   54 1
    58   33   55 1
@<TRIPOS>SUBSTRUCTURE
     1    LIG83    1   GROUP 1   LIG 1
@<TRIPOS>MOLECULE
50851835
   50    53    1     0     0
SMALL
USER_CHARGES


@<TRIPOS>ATOM
      1 C1         -2.4910  -18.3160    0.7170 C.2       1    LIG84    0.0000
      2 C2         -2.5010  -19.7090    0.9430 C.2       1    LIG84    0.0000
      3 C3         -1.6210  -20.5140    0.1940 C.2       1    LIG84    0.0000
      4 C4         -0.7510  -19.9810   -0.7630 C.2       1    LIG84    0.0000
      5 C5         -0.7370  -18.5900   -0.9880 C.2       1    LIG84    0.0000
      6 C6         -1.6110  -17.7660   -0.2400 C.2       1    LIG84    0.0000
      7 N1          0.1500  -18.1680   -1.9300 N.am      1    LIG84    0.0000
      8 C7          0.4740  -16.9140   -2.3490 C.2       1    LIG84    0.0000
      9 N2          1.4060  -16.6980   -3.3120 N.am      1    LIG84    0.0000
     10 O1         -0.0290  -15.8850   -1.8480 O.2       1    LIG84    0.0000
     11 C8          2.0720  -17.6330   -4.0380 C.2       1    LIG84    0.0000
     12 N3          1.8240  -18.9640   -3.9460 N.2       1    LIG84    0.0000
     13 C9          2.4780  -19.9160   -4.6580 C.2       1    LIG84    0.0000
     14 C10         3.4930  -19.4960   -5.5390 C.2       1    LIG84    0.0000
     15 N4          3.7410  -18.1650   -5.6480 N.2       1    LIG84    0.0000
     16 C11         3.0670  -17.2240   -4.9400 C.2       1    LIG84    0.0000
     17 C12         4.1840  -20.3340   -6.2500 C.1       1    LIG84    0.0000
     18 N5          4.7940  -21.0750   -6.8800 N.1       1    LIG84    0.0000
     19 O2          2.1540  -21.2280   -4.4860 O.3       1    LIG84    0.0000
     20 O3          0.0970  -20.7920   -1.4710 O.3       1    LIG84    0.0000
     21 C13         0.1400  -22.2100   -1.2560 C.3       1    LIG84    0.0000
     22 C14         0.7770  -21.5940   -4.3530 C.3       1    LIG84    0.0000
     23 C15         1.1560  -22.8860   -2.1850 C.3       1    LIG84    0.0000
     24 C16         0.6620  -22.9500   -3.6410 C.3       1    LIG84    0.0000
     25 Cl1        -3.5160  -17.2740    1.5790 Cl        1    LIG84    0.0000
     26 N6         -3.3310  -20.2920    1.8530 N.pl3     1    LIG84    0.0000
     27 C17        -3.3350  -21.6950    2.1000 C.3       1    LIG84    0.0000
     28 C18        -4.3520  -22.0980    3.0650 C.2       1    LIG84    0.0000
     29 C19        -5.3590  -23.0110    2.7770 C.2       1    LIG84    0.0000
     30 N7         -6.1240  -23.2910    3.8350 N.2       1    LIG84    0.0000
     31 C20        -5.7280  -22.6170    4.9240 C.2       1    LIG84    0.0000
     32 S1         -4.3590  -21.5760    4.7140 S.3       1    LIG84    0.0000
     33 H1         -1.6160  -21.5170    0.3510 H         1    LIG84    0.0000
     34 H2         -1.6100  -16.7610   -0.3960 H         1    LIG84    0.0000
     35 H3          0.6400  -18.8840   -2.3600 H         1    LIG84    0.0000
     36 H4          1.6230  -15.7720   -3.4950 H         1    LIG84    0.0000
     37 H5          3.2880  -16.2340   -5.0560 H         1    LIG84    0.0000
     38 H6         -0.8450  -22.6500   -1.4340 H         1    LIG84    0.0000
     39 H7          0.4400  -22.4060   -0.2240 H         1    LIG84    0.0000
     40 H8          0.3350  -21.6790   -5.3460 H         1    LIG84    0.0000
     41 H9          0.2110  -20.8510   -3.7920 H         1    LIG84    0.0000
     42 H10         2.1090  -22.3580   -2.1300 H         1    LIG84    0.0000
     43 H11         1.3010  -23.9060   -1.8300 H         1    LIG84    0.0000
     44 H12         1.2630  -23.6800   -4.1830 H         1    LIG84    0.0000
     45 H13        -0.3780  -23.2770   -3.6570 H         1    LIG84    0.0000
     46 H14        -3.9440  -19.7240    2.3460 H         1    LIG84    0.0000
     47 H15        -3.5080  -22.2220    1.1570 H         1    LIG84    0.0000
     48 H16        -2.3580  -21.9910    2.4900 H         1    LIG84    0.0000
     49 H17        -5.4850  -23.4390    1.8600 H         1    LIG84    0.0000
     50 H18        -6.2060  -22.7110    5.8220 H         1    LIG84    0.0000
@<TRIPOS>BOND
     1    1    2 1
     2    1    6 2
     3    1   25 1
     4    2    3 2
     5    2   26 1
     6    3    4 1
     7    3   33 1
     8    4    5 2
     9    4   20 1
    10    5    6 1
    11    5    7 1
    12    6   34 1
    13    7    8 1
    14    7   35 1
    15    8    9 1
    16    8   10 2
    17    9   11 1
    18    9   36 1
    19   11   12 1
    20   11   16 2
    21   12   13 2
    22   13   14 1
    23   13   19 1
    24   14   15 2
    25   14   17 1
    26   15   16 1
    27   16   37 1
    28   17   18 3
    29   19   22 1
    30   20   21 1
    31   21   23 1
    32   21   38 1
    33   21   39 1
    34   22   24 1
    35   22   40 1
    36   22   41 1
    37   23   24 1
    38   23   42 1
    39   23   43 1
    40   24   44 1
    41   24   45 1
    42   26   27 1
    43   26   46 1
    44   27   28 1
    45   27   47 1
    46   27   48 1
    47   28   29 2
    48   28   32 1
    49   29   30 1
    50   29   49 1
    51   30   31 2
    52   31   32 1
    53   31   50 1
@<TRIPOS>SUBSTRUCTURE
     1    LIG84    1   GROUP 1   LIG 1
@<TRIPOS>MOLECULE
50459449
   45    48    1     0     0
SMALL
USER_CHARGES


@<TRIPOS>ATOM
      1 C1          9.2010   -8.0200    0.4260 C.2       1    LIG85    0.0000
      2 C2          8.5210   -9.1600    0.8980 C.2       1    LIG85    0.0000
      3 N1          9.0830   -9.8710    1.9100 N.2       1    LIG85    0.0000
      4 C3         10.4200   -7.6410    1.0150 C.2       1    LIG85    0.0000
      5 C4         10.9080   -8.4380    2.0570 C.2       1    LIG85    0.0000
      6 N2         10.2220   -9.5220    2.4500 N.pl3     1    LIG85    0.0000
      7 C5         10.9230  -10.0760    3.4540 C.2       1    LIG85    0.0000
      8 N3         12.0100   -9.2980    3.6430 N.2       1    LIG85    0.0000
      9 N4         12.0120   -8.3090    2.8020 N.2       1    LIG85    0.0000
     10 C6         10.6250  -11.2370    4.2100 C.2       1    LIG85    0.0000
     11 C7         11.3030  -11.4760    5.4240 C.2       1    LIG85    0.0000
     12 C8         11.0170  -12.6130    6.1960 C.2       1    LIG85    0.0000
     13 C9         10.0550  -13.5340    5.7560 C.2       1    LIG85    0.0000
     14 C10         9.3690  -13.3400    4.5380 C.2       1    LIG85    0.0000
     15 C11         9.6660  -12.1830    3.7810 C.2       1    LIG85    0.0000
     16 C12         8.3680  -14.3460    4.0920 C.3       1    LIG85    0.0000
     17 F1          7.8050  -14.0760    2.8660 F         1    LIG85    0.0000
     18 F2          8.9520  -15.5860    3.9920 F         1    LIG85    0.0000
     19 F3          7.3400  -14.4200    5.0000 F         1    LIG85    0.0000
     20 N5          7.3410   -9.5300    0.3570 N.pl3     1    LIG85    0.0000
     21 C13         6.5880  -10.6490    0.8090 C.3       1    LIG85    0.0000
     22 C14         5.9880  -10.3890    2.2070 C.3       1    LIG85    0.0000
     23 C15         5.1140  -11.5700    2.6570 C.3       1    LIG85    0.0000
     24 C16         3.9940  -11.8310    1.6400 C.3       1    LIG85    0.0000
     25 C17         4.5930  -12.1000    0.2510 C.3       1    LIG85    0.0000
     26 C18         5.4540  -10.9100   -0.1980 C.3       1    LIG85    0.0000
     27 O1          3.2380  -12.9590    2.0550 O.3       1    LIG85    0.0000
     28 H1          8.8080   -7.4640   -0.3340 H         1    LIG85    0.0000
     29 H2         10.9270   -6.8140    0.7000 H         1    LIG85    0.0000
     30 H3         12.0070  -10.8170    5.7630 H         1    LIG85    0.0000
     31 H4         11.5090  -12.7690    7.0760 H         1    LIG85    0.0000
     32 H5          9.8560  -14.3580    6.3250 H         1    LIG85    0.0000
     33 H6          9.1800  -12.0440    2.8970 H         1    LIG85    0.0000
     34 H7          6.9950   -9.0140   -0.3870 H         1    LIG85    0.0000
     35 H8          7.2280  -11.5340    0.8470 H         1    LIG85    0.0000
     36 H9          5.3810   -9.4820    2.1800 H         1    LIG85    0.0000
     37 H10         6.7880  -10.2550    2.9350 H         1    LIG85    0.0000
     38 H11         5.7330  -12.4620    2.7520 H         1    LIG85    0.0000
     39 H12         4.6730  -11.3410    3.6270 H         1    LIG85    0.0000
     40 H13         3.3380  -10.9610    1.5910 H         1    LIG85    0.0000
     41 H14         3.7870  -12.2510   -0.4680 H         1    LIG85    0.0000
     42 H15         5.2090  -12.9990    0.2880 H         1    LIG85    0.0000
     43 H16         4.8250  -10.0220   -0.2820 H         1    LIG85    0.0000
     44 H17         5.8840  -11.1330   -1.1760 H         1    LIG85    0.0000
     45 H18         2.4870  -13.1830    1.4660 H         1    LIG85    0.0000
@<TRIPOS>BOND
     1    1    2 1
     2    1    4 2
     3    1   28 1
     4    2    3 2
     5    2   20 1
     6    3    6 1
     7    4    5 1
     8    4   29 1
     9    5    6 1
    10    5    9 2
    11    6    7 1
    12    7    8 2
    13    7   10 1
    14    8    9 1
    15   10   11 1
    16   10   15 2
    17   11   12 2
    18   11   30 1
    19   12   13 1
    20   12   31 1
    21   13   14 2
    22   13   32 1
    23   14   15 1
    24   14   16 1
    25   15   33 1
    26   16   17 1
    27   16   18 1
    28   16   19 1
    29   21   20 1
    30   20   34 1
    31   21   22 1
    32   21   26 1
    33   21   35 1
    34   22   23 1
    35   22   36 1
    36   22   37 1
    37   23   24 1
    38   23   38 1
    39   23   39 1
    40   24   25 1
    41   24   27 1
    42   24   40 1
    43   25   26 1
    44   25   41 1
    45   25   42 1
    46   26   43 1
    47   26   44 1
    48   27   45 1
@<TRIPOS>SUBSTRUCTURE
     1    LIG85    1   GROUP 1   LIG 1
@<TRIPOS>MOLECULE
51476389
   55    58    1     0     0
SMALL
USER_CHARGES


@<TRIPOS>ATOM
      1 O1         -3.8065    0.9146    0.0000 O.2       1    LIG86    0.0000
      2 C1         -3.8065    0.0896    0.0000 C.2       1    LIG86    0.0000
      3 N1         -4.5210   -0.3229    0.0000 N.am      1    LIG86    0.0000
      4 C2         -4.5210   -1.1478    0.0000 C.2       1    LIG86    0.0000
      5 N2         -3.8065   -1.5603    0.0000 N.2       1    LIG86    0.0000
      6 C3         -3.0921   -1.1478    0.0000 C.ar      1    LIG86    0.0000
      7 C4         -3.0921   -0.3229    0.0000 C.ar      1    LIG86    0.0000
      8 C5         -2.3074   -0.0679    0.0000 C.ar      1    LIG86    0.0000
      9 C6         -2.0525    0.7166    0.0000 C.ar      1    LIG86    0.0000
     10 C7         -2.6044    1.3297    0.0000 C.ar      1    LIG86    0.0000
     11 C8         -2.3496    2.1143    0.0000 C.ar      1    LIG86    0.0000
     12 C9         -1.5426    2.2859    0.0000 C.ar      1    LIG86    0.0000
     13 C10        -0.9906    1.6728    0.0000 C.ar      1    LIG86    0.0000
     14 N3         -0.1836    1.8443    0.0000 N.am      1    LIG86    0.0000
     15 C11         0.3683    1.2312    0.0000 C.2       1    LIG86    0.0000
     16 C12         1.1753    1.4028    0.0000 C.2       1    LIG86    0.0000
     17 C13         1.4302    2.1873    0.0000 C.2       1    LIG86    0.0000
     18 N4          1.6852    2.9720    0.0000 N.2       1    LIG86    1.0000
     19 C14         1.7588    0.8192    0.0000 C.2       1    LIG86    0.0000
     20 C15         2.5560    1.0328    0.0000 C.ar      1    LIG86    0.0000
     21 C16         2.7698    1.8300    0.0000 C.ar      1    LIG86    0.0000
     22 C17         3.5648    2.0421    0.0000 C.ar      1    LIG86    0.0000
     23 C18         4.1485    1.4584    0.0000 C.ar      1    LIG86    0.0000
     24 C19         3.9375    0.6649    0.0000 C.ar      1    LIG86    0.0000
     25 C20         3.1420    0.4468    0.0000 C.ar      1    LIG86    0.0000
     26 O2          0.1134    0.4466    0.0000 O.2       1    LIG86    0.0000
     27 C21        -1.2455    0.8882    0.0000 C.ar      1    LIG86    0.0000
     28 N5         -1.8225   -0.7352    0.0000 N.ar      1    LIG86    0.0000
     29 N6         -2.3074   -1.4028    0.0000 N.pl3     1    LIG86    0.0000
     30 C22        -2.0525   -2.1873    0.0000 C.3       1    LIG86    0.0000
     31 C23        -1.2455   -2.3589    0.0000 C.3       1    LIG86    0.0000
     32 C24        -2.6044   -2.8005    0.0000 C.3       1    LIG86    0.0000
     33 C25        -1.7975   -2.9720    0.0000 C.3       1    LIG86    0.0000
     34 Cl1         4.5210    0.0813    0.0000 Cl        1    LIG86    0.0000
     35 H1         -5.4130    0.1921    0.0000 H         1    LIG86    0.0000
     36 H2         -5.4650   -1.6928    0.0000 H         1    LIG86    0.0000
     37 H3         -3.6706    1.1031    0.0000 H         1    LIG86    0.0000
     38 H4         -3.0790    2.9242    0.0000 H         1    LIG86    0.0000
     39 H5         -1.2058    3.3226    0.0000 H         1    LIG86    0.0000
     40 H6          0.1348    2.8239    0.0000 H         1    LIG86    0.0000
     41 H7          1.4766   -0.2336    0.0000 H         1    LIG86    0.0000
     42 H8          1.9996    2.6012    0.0000 H         1    LIG86    0.0000
     43 H9          3.8475    3.0948    0.0000 H         1    LIG86    0.0000
     44 H10         5.2011    1.7415    0.0000 H         1    LIG86    0.0000
     45 H11         2.8629   -0.6069    0.0000 H         1    LIG86    0.0000
     46 H12        -0.5161    0.0782    0.0000 H         1    LIG86    0.0000
     47 H13        -1.1506   -3.4448    0.0000 H         1    LIG86    0.0000
     48 H14        -0.8254   -1.9154   -0.9027 H         1    LIG86    0.0000
     49 H15        -0.8254   -1.9154    0.9027 H         1    LIG86    0.0000
     50 H16        -2.0428   -3.7347    0.0000 H         1    LIG86    0.0000
     51 H17        -3.2050   -2.6887    0.9027 H         1    LIG86    0.0000
     52 H18        -3.2050   -2.6887   -0.9027 H         1    LIG86    0.0000
     53 H19        -2.6904   -3.5972    0.0000 H         1    LIG86    0.0000
     54 H20        -1.2033   -3.1140   -0.9027 H         1    LIG86    0.0000
     55 H21        -1.2033   -3.1140    0.9027 H         1    LIG86    0.0000
@<TRIPOS>BOND
     1    2    1 2
     2    2    3 ar
     3    3    4 2
     4    5    4 1
     5    6    5 2
     6    7    6 ar
     7    2    7 1
     8    7    8 ar
     9    9    8 1
    10   10    9 ar
    11   10   11 ar
    12   11   12 ar
    13   12   13 ar
    14   13   14 2
    15   14   15 am
    16   15   16 1
    17   16   17 2
    18   17   18 1
    19   16   19 1
    20   19   20 2
    21   21   20 ar
    22   22   21 ar
    23   23   22 ar
    24   24   23 ar
    25   25   24 ar
    26   20   25 ar
    27   15   26 2
    28   13   27 ar
    29    9   27 ar
    30    8   28 ar
    31   28   29 ar
    32    6   29 ar
    33   29   30 1
    34   30   31 1
    35   30   32 1
    36   30   33 1
    37   24   34 1
    38    3   35 1
    39    4   36 1
    40   10   37 1
    41   11   38 1
    42   12   39 1
    43   14   40 1
    44   19   41 1
    45   21   42 1
    46   22   43 1
    47   23   44 1
    48   25   45 1
    49   27   46 1
    50   31   47 1
    51   31   48 1
    52   31   49 1
    53   32   50 1
    54   32   51 1
    55   32   52 1
    56   33   53 1
    57   33   54 1
    58   33   55 1
@<TRIPOS>SUBSTRUCTURE
     1    LIG86    1   GROUP 1   LIG 1
@<TRIPOS>MOLECULE
51476381
   55    58    1     0     0
SMALL
USER_CHARGES


@<TRIPOS>ATOM
      1 O1         -4.0188    0.9146    0.0000 O.2       1    LIG87    0.0000
      2 C1         -4.0188    0.0896    0.0000 C.2       1    LIG87    0.0000
      3 N1         -4.7333   -0.3229    0.0000 N.am      1    LIG87    0.0000
      4 C2         -4.7333   -1.1478    0.0000 C.2       1    LIG87    0.0000
      5 N2         -4.0188   -1.5603    0.0000 N.2       1    LIG87    0.0000
      6 C3         -3.3044   -1.1478    0.0000 C.ar      1    LIG87    0.0000
      7 C4         -3.3044   -0.3229    0.0000 C.ar      1    LIG87    0.0000
      8 C5         -2.5197   -0.0679    0.0000 C.ar      1    LIG87    0.0000
      9 C6         -2.2648    0.7166    0.0000 C.ar      1    LIG87    0.0000
     10 C7         -2.8168    1.3297    0.0000 C.ar      1    LIG87    0.0000
     11 C8         -2.5619    2.1143    0.0000 C.ar      1    LIG87    0.0000
     12 C9         -1.7549    2.2859    0.0000 C.ar      1    LIG87    0.0000
     13 C10        -1.2029    1.6728    0.0000 C.ar      1    LIG87    0.0000
     14 N3         -0.3958    1.8443    0.0000 N.am      1    LIG87    0.0000
     15 C11         0.1560    1.2312    0.0000 C.2       1    LIG87    0.0000
     16 C12         0.9630    1.4028    0.0000 C.2       1    LIG87    0.0000
     17 C13         1.2179    2.1873    0.0000 C.2       1    LIG87    0.0000
     18 N4          1.4728    2.9720    0.0000 N.2       1    LIG87    1.0000
     19 C14         1.5465    0.8192    0.0000 C.2       1    LIG87    0.0000
     20 C15         2.3437    1.0328    0.0000 C.ar      1    LIG87    0.0000
     21 O2         -0.0988    0.4466    0.0000 O.2       1    LIG87    0.0000
     22 C16        -1.4578    0.8882    0.0000 C.ar      1    LIG87    0.0000
     23 N5         -2.0348   -0.7352    0.0000 N.ar      1    LIG87    0.0000
     24 N6         -2.5197   -1.4028    0.0000 N.pl3     1    LIG87    0.0000
     25 C17        -2.2648   -2.1873    0.0000 C.3       1    LIG87    0.0000
     26 C18        -1.4578   -2.3589    0.0000 C.3       1    LIG87    0.0000
     27 C19        -2.8168   -2.8005    0.0000 C.3       1    LIG87    0.0000
     28 C20        -2.0099   -2.9720    0.0000 C.3       1    LIG87    0.0000
     29 C21         2.5575    1.8300    0.0000 C.ar      1    LIG87    0.0000
     30 C22         3.3524    2.0421    0.0000 C.ar      1    LIG87    0.0000
     31 C23         3.9362    1.4584    0.0000 C.ar      1    LIG87    0.0000
     32 C24         3.7252    0.6649    0.0000 C.ar      1    LIG87    0.0000
     33 C25         2.9297    0.4468    0.0000 C.ar      1    LIG87    0.0000
     34 Br1         4.7333    1.6720    0.0000 Br        1    LIG87    0.0000
     35 H1         -5.6253    0.1921    0.0000 H         1    LIG87    0.0000
     36 H2         -5.6773   -1.6928    0.0000 H         1    LIG87    0.0000
     37 H3         -3.8830    1.1031    0.0000 H         1    LIG87    0.0000
     38 H4         -3.2913    2.9243    0.0000 H         1    LIG87    0.0000
     39 H5         -1.4181    3.3226    0.0000 H         1    LIG87    0.0000
     40 H6         -0.0774    2.8238    0.0000 H         1    LIG87    0.0000
     41 H7          1.2643   -0.2336    0.0000 H         1    LIG87    0.0000
     42 H8         -0.7284    0.0782    0.0000 H         1    LIG87    0.0000
     43 H9         -1.3629   -3.4448    0.0000 H         1    LIG87    0.0000
     44 H10        -1.0377   -1.9154   -0.9027 H         1    LIG87    0.0000
     45 H11        -1.0377   -1.9154    0.9027 H         1    LIG87    0.0000
     46 H12        -2.2553   -3.7347    0.0000 H         1    LIG87    0.0000
     47 H13        -3.4174   -2.6887    0.9027 H         1    LIG87    0.0000
     48 H14        -3.4174   -2.6887   -0.9027 H         1    LIG87    0.0000
     49 H15        -0.9201   -2.9531    0.0000 H         1    LIG87    0.0000
     50 H16        -2.4071   -3.4361    0.9027 H         1    LIG87    0.0000
     51 H17        -2.4071   -3.4361   -0.9027 H         1    LIG87    0.0000
     52 H18         1.7872    2.6012    0.0000 H         1    LIG87    0.0000
     53 H19         3.6350    3.0948    0.0000 H         1    LIG87    0.0000
     54 H20         4.4989   -0.1029    0.0000 H         1    LIG87    0.0000
     55 H21         2.6506   -0.6069    0.0000 H         1    LIG87    0.0000
@<TRIPOS>BOND
     1    2    1 2
     2    2    3 ar
     3    3    4 2
     4    5    4 1
     5    6    5 2
     6    7    6 ar
     7    2    7 1
     8    7    8 ar
     9    9    8 1
    10   10    9 ar
    11   10   11 ar
    12   11   12 ar
    13   12   13 ar
    14   13   14 2
    15   14   15 am
    16   15   16 1
    17   16   17 2
    18   17   18 1
    19   16   19 1
    20   19   20 2
    21   15   21 2
    22   13   22 ar
    23    9   22 ar
    24    8   23 ar
    25   23   24 ar
    26    6   24 ar
    27   24   25 1
    28   25   26 1
    29   25   27 1
    30   25   28 1
    31   29   20 ar
    32   30   29 ar
    33   31   30 ar
    34   32   31 ar
    35   33   32 ar
    36   20   33 ar
    37   31   34 1
    38    3   35 1
    39    4   36 1
    40   10   37 1
    41   11   38 1
    42   12   39 1
    43   14   40 1
    44   19   41 1
    45   22   42 1
    46   26   43 1
    47   26   44 1
    48   26   45 1
    49   27   46 1
    50   27   47 1
    51   27   48 1
    52   28   49 1
    53   28   50 1
    54   28   51 1
    55   29   52 1
    56   30   53 1
    57   32   54 1
    58   33   55 1
@<TRIPOS>SUBSTRUCTURE
     1    LIG87    1   GROUP 1   LIG 1
@<TRIPOS>MOLECULE
50579966
   54    57    1     0     0
SMALL
USER_CHARGES


@<TRIPOS>ATOM
      1 C1         -2.5360  -29.6750    0.6850 C.2       1    LIG88    0.0000
      2 C2         -2.4110  -31.0710    0.7260 C.2       1    LIG88    0.0000
      3 N1         -1.1910  -31.6490    0.6250 N.2       1    LIG88    0.0000
      4 C3         -0.0660  -30.9100    0.4840 C.2       1    LIG88    0.0000
      5 N2         -0.1800  -29.5600    0.4440 N.2       1    LIG88    0.0000
      6 C4         -1.3660  -28.9090    0.5380 C.2       1    LIG88    0.0000
      7 N3          1.1300  -31.5340    0.3920 N.pl3     1    LIG88    0.0000
      8 C5          2.2990  -30.8670    0.2640 C.2       1    LIG88    0.0000
      9 C6          3.0430  -30.5250    1.4080 C.2       1    LIG88    0.0000
     10 C7          4.2350  -29.7910    1.2810 C.2       1    LIG88    0.0000
     11 C8          4.6950  -29.3950    0.0100 C.2       1    LIG88    0.0000
     12 C9          3.9560  -29.7530   -1.1340 C.2       1    LIG88    0.0000
     13 C10         2.7640  -30.4870   -1.0090 C.2       1    LIG88    0.0000
     14 C11        -1.4160  -27.5010    0.4900 C.2       1    LIG88    0.0000
     15 S1         -2.9200  -26.6480    0.6170 S.3       1    LIG88    0.0000
     16 C12        -2.0150  -25.1810    0.4680 C.2       1    LIG88    0.0000
     17 N4         -0.6920  -25.3410    0.3350 N.2       1    LIG88    0.0000
     18 C13        -0.3290  -26.6310    0.3440 C.2       1    LIG88    0.0000
     19 C14         1.0820  -27.0150    0.2100 C.3       1    LIG88    0.0000
     20 N5          5.8370  -28.6680   -0.1080 N.pl3     1    LIG88    0.0000
     21 C15         7.0950  -29.1710    0.3460 C.3       1    LIG88    0.0000
     22 C16         8.0880  -29.1800   -0.8280 C.3       1    LIG88    0.0000
     23 N6          8.0790  -27.9070   -1.4580 N.3       1    LIG88    0.0000
     24 C17         6.8340  -27.3880   -1.9030 C.3       1    LIG88    0.0000
     25 C18         5.8450  -27.3790   -0.7260 C.3       1    LIG88    0.0000
     26 C19        -2.6550  -23.8680    0.4890 C.3       1    LIG88    0.0000
     27 S2          9.4830  -26.9800   -1.5580 S.o2      1    LIG88    0.0000
     28 C20         9.4240  -26.0350   -0.0290 C.3       1    LIG88    0.0000
     29 O1         10.7550  -27.9190   -1.3930 O.2       1    LIG88    0.0000
     30 O2          9.3120  -25.8880   -2.7020 O.2       1    LIG88    0.0000
     31 H1         -3.4570  -29.2410    0.7620 H         1    LIG88    0.0000
     32 H2         -3.2420  -31.6540    0.8320 H         1    LIG88    0.0000
     33 H3          1.1490  -32.5020    0.4330 H         1    LIG88    0.0000
     34 H4          2.7120  -30.7950    2.3350 H         1    LIG88    0.0000
     35 H5          4.7620  -29.5370    2.1170 H         1    LIG88    0.0000
     36 H6          4.2820  -29.4750   -2.0610 H         1    LIG88    0.0000
     37 H7          2.2290  -30.7310   -1.8440 H         1    LIG88    0.0000
     38 H8          1.7030  -26.1240    0.1120 H         1    LIG88    0.0000
     39 H9          1.4010  -27.5710    1.0930 H         1    LIG88    0.0000
     40 H10         1.2150  -27.6350   -0.6770 H         1    LIG88    0.0000
     41 H11         7.0130  -30.1840    0.7470 H         1    LIG88    0.0000
     42 H12         7.4770  -28.5150    1.1300 H         1    LIG88    0.0000
     43 H13         9.0840  -29.4190   -0.4560 H         1    LIG88    0.0000
     44 H14         7.7860  -29.9400   -1.5500 H         1    LIG88    0.0000
     45 H15         6.9520  -26.3730   -2.2820 H         1    LIG88    0.0000
     46 H16         6.4430  -28.0230   -2.6990 H         1    LIG88    0.0000
     47 H17         4.8570  -27.0890   -1.0890 H         1    LIG88    0.0000
     48 H18         6.1740  -26.6400    0.0060 H         1    LIG88    0.0000
     49 H19        -1.9060  -23.0830    0.3760 H         1    LIG88    0.0000
     50 H20        -3.3720  -23.8020   -0.3290 H         1    LIG88    0.0000
     51 H21        -3.1760  -23.7350    1.4380 H         1    LIG88    0.0000
     52 H22        10.3020  -25.3940    0.0330 H         1    LIG88    0.0000
     53 H23         8.5230  -25.4220   -0.0180 H         1    LIG88    0.0000
     54 H24         9.4100  -26.7190    0.8180 H         1    LIG88    0.0000
@<TRIPOS>BOND
     1    1    2 1
     2    1    6 2
     3    1   31 1
     4    2    3 2
     5    2   32 1
     6    3    4 1
     7    4    5 2
     8    4    7 1
     9    5    6 1
    10    6   14 1
    11    7    8 1
    12    7   33 1
    13    8    9 2
    14    8   13 1
    15    9   10 1
    16    9   34 1
    17   10   11 2
    18   10   35 1
    19   11   12 1
    20   11   20 1
    21   12   13 2
    22   12   36 1
    23   13   37 1
    24   14   15 1
    25   14   18 2
    26   15   16 1
    27   16   17 2
    28   16   26 1
    29   17   18 1
    30   18   19 1
    31   19   38 1
    32   19   39 1
    33   19   40 1
    34   20   21 1
    35   20   25 1
    36   21   22 1
    37   21   41 1
    38   21   42 1
    39   22   23 1
    40   22   43 1
    41   22   44 1
    42   23   24 1
    43   23   27 1
    44   24   25 1
    45   24   45 1
    46   24   46 1
    47   25   47 1
    48   25   48 1
    49   26   49 1
    50   26   50 1
    51   26   51 1
    52   27   28 1
    53   27   29 2
    54   27   30 2
    55   28   52 1
    56   28   53 1
    57   28   54 1
@<TRIPOS>SUBSTRUCTURE
     1    LIG88    1   GROUP 1   LIG 1
@<TRIPOS>MOLECULE
51476385
   37    40    1     0     0
SMALL
USER_CHARGES


@<TRIPOS>ATOM
      1 N1         -1.9859   -1.9018    0.0000 N.ar      1    LIG89    0.0000
      2 N2         -1.5009   -1.2344    0.0000 N.ar      1    LIG89    0.0000
      3 C1         -1.9859   -0.5668    0.0000 C.ar      1    LIG89    0.0000
      4 N3         -1.7309    0.2177    0.0000 N.2       1    LIG89    0.0000
      5 C2         -2.7706   -0.8219    0.0000 C.ar      1    LIG89    0.0000
      6 C3         -2.7706   -1.6469    0.0000 C.ar      1    LIG89    0.0000
      7 N4         -3.4851   -2.0594    0.0000 N.2       1    LIG89    0.0000
      8 C4         -4.1996   -1.6469    0.0000 C.2       1    LIG89    0.0000
      9 N5         -4.1996   -0.8219    0.0000 N.am      1    LIG89    0.0000
     10 C5         -3.4851   -0.4093    0.0000 C.2       1    LIG89    0.0000
     11 O1         -3.4851    0.4156    0.0000 O.2       1    LIG89    0.0000
     12 C6         -0.9238    0.3892    0.0000 C.ar      1    LIG89    0.0000
     13 C7         -0.6684    1.1741    0.0000 C.ar      1    LIG89    0.0000
     14 C8          0.1364    1.3444    0.0000 C.ar      1    LIG89    0.0000
     15 C9          0.6889    0.7310    0.0000 C.ar      1    LIG89    0.0000
     16 C10         0.4365   -0.0505    0.0000 C.ar      1    LIG89    0.0000
     17 C11        -0.3691   -0.2266    0.0000 C.ar      1    LIG89    0.0000
     18 S1          1.4860    0.9446    0.0000 S.o2      1    LIG89    0.0000
     19 N6          2.0696    0.3608    0.0000 N.2       1    LIG89    0.0000
     20 C12         2.8667    0.5745    0.0000 C.ar      1    LIG89    0.0000
     21 O2          2.0707    1.5291    0.0000 O.2       1    LIG89    0.0000
     22 O3          1.2735    1.7427    0.0000 O.2       1    LIG89    0.0000
     23 C13         3.1623    1.3446    0.0000 C.ar      1    LIG89    0.0000
     24 C14         3.9862    1.3013    0.0000 C.ar      1    LIG89    0.0000
     25 O4          4.1996    0.5047    0.0000 O.2       1    LIG89    0.0000
     26 N7          3.5078    0.0554    0.0000 N.ar      1    LIG89    0.0000
     27 C15         4.5054    1.9423    0.0000 C.3       1    LIG89    0.0000
     28 H1         -5.1436   -2.1919    0.0000 H         1    LIG89    0.0000
     29 H2         -5.0916   -0.3069    0.0000 H         1    LIG89    0.0000
     30 H3         -1.3972    1.9846    0.0000 H         1    LIG89    0.0000
     31 H4          0.4736    2.3809    0.0000 H         1    LIG89    0.0000
     32 H5          1.1689   -0.8578    0.0000 H         1    LIG89    0.0000
     33 H6         -0.7028   -1.2643    0.0000 H         1    LIG89    0.0000
     34 H7          2.5687    2.2588    0.0000 H         1    LIG89    0.0000
     35 H8          5.5160    1.5339    0.0000 H         1    LIG89    0.0000
     36 H9          4.3010    2.5180   -0.9027 H         1    LIG89    0.0000
     37 H10         4.3010    2.5180    0.9027 H         1    LIG89    0.0000
@<TRIPOS>BOND
     1    2    1 ar
     2    3    2 ar
     3    4    3 2
     4    5    3 ar
     5    6    1 ar
     6    5    6 ar
     7    6    7 2
     8    7    8 1
     9    9    8 2
    10   10    9 ar
    11   10    5 1
    12   10   11 2
    13    4   12 1
    14   13   12 ar
    15   14   13 ar
    16   15   14 ar
    17   16   15 ar
    18   17   16 ar
    19   12   17 ar
    20   15   18 1
    21   18   19 1
    22   19   20 1
    23   18   21 2
    24   18   22 2
    25   23   20 ar
    26   23   24 ar
    27   24   25 ar
    28   25   26 ar
    29   26   20 ar
    30   24   27 1
    31    8   28 1
    32    9   29 1
    33   13   30 1
    34   14   31 1
    35   16   32 1
    36   17   33 1
    37   23   34 1
    38   27   35 1
    39   27   36 1
    40   27   37 1
@<TRIPOS>SUBSTRUCTURE
     1    LIG89    1   GROUP 1   LIG 1
@<TRIPOS>MOLECULE
51476391
   58    61    1     0     0
SMALL
USER_CHARGES


@<TRIPOS>ATOM
      1 O1         -4.2051    0.9146    0.0000 O.2       1    LIG90    0.0000
      2 C1         -4.2051    0.0896    0.0000 C.2       1    LIG90    0.0000
      3 N1         -4.9196   -0.3229    0.0000 N.am      1    LIG90    0.0000
      4 C2         -4.9196   -1.1478    0.0000 C.2       1    LIG90    0.0000
      5 N2         -4.2051   -1.5603    0.0000 N.2       1    LIG90    0.0000
      6 C3         -3.4906   -1.1478    0.0000 C.ar      1    LIG90    0.0000
      7 C4         -3.4906   -0.3229    0.0000 C.ar      1    LIG90    0.0000
      8 C5         -2.7060   -0.0679    0.0000 C.ar      1    LIG90    0.0000
      9 C6         -2.4511    0.7166    0.0000 C.ar      1    LIG90    0.0000
     10 C7         -3.0031    1.3297    0.0000 C.ar      1    LIG90    0.0000
     11 C8         -2.7481    2.1143    0.0000 C.ar      1    LIG90    0.0000
     12 C9         -1.9412    2.2859    0.0000 C.ar      1    LIG90    0.0000
     13 C10        -1.3891    1.6728    0.0000 C.ar      1    LIG90    0.0000
     14 N3         -0.5822    1.8443    0.0000 N.am      1    LIG90    0.0000
     15 C11        -0.0301    1.2312    0.0000 C.2       1    LIG90    0.0000
     16 C12         0.7768    1.4028    0.0000 C.2       1    LIG90    0.0000
     17 C13         1.0316    2.1873    0.0000 C.2       1    LIG90    0.0000
     18 N4          1.2866    2.9720    0.0000 N.2       1    LIG90    1.0000
     19 C14         1.3602    0.8192    0.0000 C.2       1    LIG90    0.0000
     20 C15         2.1574    1.0328    0.0000 C.ar      1    LIG90    0.0000
     21 C16         2.3713    1.8299    0.0000 C.ar      1    LIG90    0.0000
     22 C17         3.1662    2.0421    0.0000 C.ar      1    LIG90    0.0000
     23 C18         3.7499    1.4584    0.0000 C.ar      1    LIG90    0.0000
     24 C19         3.5389    0.6647    0.0000 C.ar      1    LIG90    0.0000
     25 C20         2.7435    0.4467    0.0000 C.ar      1    LIG90    0.0000
     26 O2         -0.2851    0.4466    0.0000 O.2       1    LIG90    0.0000
     27 C21        -1.6441    0.8882    0.0000 C.ar      1    LIG90    0.0000
     28 N5         -2.2210   -0.7352    0.0000 N.ar      1    LIG90    0.0000
     29 N6         -2.7060   -1.4028    0.0000 N.pl3     1    LIG90    0.0000
     30 C22        -2.4511   -2.1873    0.0000 C.3       1    LIG90    0.0000
     31 C23        -1.6441   -2.3589    0.0000 C.3       1    LIG90    0.0000
     32 C24        -3.0031   -2.8005    0.0000 C.3       1    LIG90    0.0000
     33 C25        -2.1961   -2.9720    0.0000 C.3       1    LIG90    0.0000
     34 C26         4.1224    0.0813    0.0000 C.3       1    LIG90    0.0000
     35 F1          4.9196    0.2949    0.0000 F         1    LIG90    0.0000
     36 F2          3.9088   -0.7158    0.0000 F         1    LIG90    0.0000
     37 F3          4.7060   -0.5022    0.0000 F         1    LIG90    0.0000
     38 H1         -5.8116    0.1921    0.0000 H         1    LIG90    0.0000
     39 H2         -5.8636   -1.6928    0.0000 H         1    LIG90    0.0000
     40 H3         -4.0693    1.1031    0.0000 H         1    LIG90    0.0000
     41 H4         -3.4775    2.9243    0.0000 H         1    LIG90    0.0000
     42 H5         -1.6045    3.3226    0.0000 H         1    LIG90    0.0000
     43 H6         -0.2639    2.8239    0.0000 H         1    LIG90    0.0000
     44 H7          1.0780   -0.2336    0.0000 H         1    LIG90    0.0000
     45 H8          1.6011    2.6011    0.0000 H         1    LIG90    0.0000
     46 H9          3.4488    3.0948    0.0000 H         1    LIG90    0.0000
     47 H10         4.8025    1.7415    0.0000 H         1    LIG90    0.0000
     48 H11         2.4644   -0.6070    0.0000 H         1    LIG90    0.0000
     49 H12        -0.9147    0.0782    0.0000 H         1    LIG90    0.0000
     50 H13        -1.5492   -3.4448    0.0000 H         1    LIG90    0.0000
     51 H14        -1.2240   -1.9154   -0.9027 H         1    LIG90    0.0000
     52 H15        -1.2240   -1.9154    0.9027 H         1    LIG90    0.0000
     53 H16        -2.4416   -3.7347    0.0000 H         1    LIG90    0.0000
     54 H17        -3.6037   -2.6887    0.9027 H         1    LIG90    0.0000
     55 H18        -3.6037   -2.6887   -0.9027 H         1    LIG90    0.0000
     56 H19        -3.0890   -3.5972    0.0000 H         1    LIG90    0.0000
     57 H20        -1.6019   -3.1140   -0.9027 H         1    LIG90    0.0000
     58 H21        -1.6019   -3.1140    0.9027 H         1    LIG90    0.0000
@<TRIPOS>BOND
     1    2    1 2
     2    2    3 ar
     3    3    4 2
     4    5    4 1
     5    6    5 1
     6    7    6 ar
     7    2    7 1
     8    7    8 ar
     9    9    8 1
    10   10    9 ar
    11   10   11 ar
    12   11   12 ar
    13   12   13 ar
    14   13   14 2
    15   14   15 am
    16   15   16 1
    17   16   17 2
    18   17   18 1
    19   16   19 1
    20   19   20 1
    21   21   20 ar
    22   22   21 ar
    23   23   22 ar
    24   24   23 ar
    25   25   24 ar
    26   20   25 ar
    27   15   26 2
    28   13   27 ar
    29    9   27 ar
    30    8   28 ar
    31   28   29 ar
    32    6   29 ar
    33   29   30 1
    34   30   31 1
    35   30   32 1
    36   30   33 1
    37   24   34 1
    38   34   35 1
    39   34   36 1
    40   34   37 1
    41    3   38 1
    42    4   39 1
    43   10   40 1
    44   11   41 1
    45   12   42 1
    46   14   43 1
    47   19   44 1
    48   21   45 1
    49   22   46 1
    50   23   47 1
    51   25   48 1
    52   27   49 1
    53   31   50 1
    54   31   51 1
    55   31   52 1
    56   32   53 1
    57   32   54 1
    58   32   55 1
    59   33   56 1
    60   33   57 1
    61   33   58 1
@<TRIPOS>SUBSTRUCTURE
     1    LIG90    1   GROUP 1   LIG 1
@<TRIPOS>MOLECULE
51476393
   59    62    1     0     0
SMALL
USER_CHARGES


@<TRIPOS>ATOM
      1 O1         -4.3097    0.9146    0.0000 O.2       1    LIG91    0.0000
      2 C1         -4.3097    0.0896    0.0000 C.2       1    LIG91    0.0000
      3 N1         -5.0242   -0.3229    0.0000 N.am      1    LIG91    0.0000
      4 C2         -5.0242   -1.1478    0.0000 C.2       1    LIG91    0.0000
      5 N2         -4.3097   -1.5603    0.0000 N.2       1    LIG91    0.0000
      6 C3         -3.5953   -1.1478    0.0000 C.ar      1    LIG91    0.0000
      7 C4         -3.5953   -0.3229    0.0000 C.ar      1    LIG91    0.0000
      8 C5         -2.8106   -0.0679    0.0000 C.ar      1    LIG91    0.0000
      9 C6         -2.5557    0.7166    0.0000 C.ar      1    LIG91    0.0000
     10 C7         -3.1077    1.3297    0.0000 C.ar      1    LIG91    0.0000
     11 C8         -2.8527    2.1143    0.0000 C.ar      1    LIG91    0.0000
     12 C9         -2.0458    2.2859    0.0000 C.ar      1    LIG91    0.0000
     13 C10        -1.4938    1.6728    0.0000 C.ar      1    LIG91    0.0000
     14 N3         -0.6868    1.8443    0.0000 N.am      1    LIG91    0.0000
     15 C11        -0.1348    1.2312    0.0000 C.2       1    LIG91    0.0000
     16 C12         0.6721    1.4028    0.0000 C.2       1    LIG91    0.0000
     17 C13         0.9270    2.1873    0.0000 C.2       1    LIG91    0.0000
     18 N4          1.1820    2.9720    0.0000 N.2       1    LIG91    1.0000
     19 C14         1.2556    0.8192    0.0000 C.2       1    LIG91    0.0000
     20 C15         2.0528    1.0328    0.0000 C.2       1    LIG91    0.0000
     21 C16         3.4342    0.6647    0.0000 C.ar      1    LIG91    0.0000
     22 C17         2.6387    0.4467    0.0000 C.2       1    LIG91    0.0000
     23 O2         -0.3897    0.4466    0.0000 O.2       1    LIG91    0.0000
     24 C18        -1.7487    0.8882    0.0000 C.ar      1    LIG91    0.0000
     25 N5         -2.3257   -0.7352    0.0000 N.ar      1    LIG91    0.0000
     26 N6         -2.8106   -1.4028    0.0000 N.pl3     1    LIG91    0.0000
     27 C19        -2.5557   -2.1873    0.0000 C.3       1    LIG91    0.0000
     28 C20        -1.7487   -2.3589    0.0000 C.3       1    LIG91    0.0000
     29 C21        -3.1077   -2.8005    0.0000 C.3       1    LIG91    0.0000
     30 C22        -2.3007   -2.9720    0.0000 C.3       1    LIG91    0.0000
     31 C23         3.6435    1.4632    0.0000 C.ar      1    LIG91    0.0000
     32 C24         4.4371    1.6800    0.0000 C.ar      1    LIG91    0.0000
     33 C25         5.0242    1.0996    0.0000 C.ar      1    LIG91    0.0000
     34 C26         4.8178    0.3048    0.0000 C.ar      1    LIG91    0.0000
     35 C27         4.0237    0.0822    0.0000 C.ar      1    LIG91    0.0000
     36 H1         -5.9162    0.1921    0.0000 H         1    LIG91    0.0000
     37 H2         -5.9682   -1.6928    0.0000 H         1    LIG91    0.0000
     38 H3         -4.1739    1.1031    0.0000 H         1    LIG91    0.0000
     39 H4         -3.5821    2.9243    0.0000 H         1    LIG91    0.0000
     40 H5         -1.7090    3.3226    0.0000 H         1    LIG91    0.0000
     41 H6         -0.3685    2.8239    0.0000 H         1    LIG91    0.0000
     42 H7          0.9734   -0.2336    0.0000 H         1    LIG91    0.0000
     43 H8          2.3350    2.0856    0.0000 H         1    LIG91    0.0000
     44 H9          2.3595   -0.6069    0.0000 H         1    LIG91    0.0000
     45 H10        -1.0193    0.0782    0.0000 H         1    LIG91    0.0000
     46 H11        -1.6538   -3.4448    0.0000 H         1    LIG91    0.0000
     47 H12        -1.3286   -1.9154   -0.9027 H         1    LIG91    0.0000
     48 H13        -1.3286   -1.9154    0.9027 H         1    LIG91    0.0000
     49 H14        -2.5462   -3.7347    0.0000 H         1    LIG91    0.0000
     50 H15        -3.7083   -2.6887    0.9027 H         1    LIG91    0.0000
     51 H16        -3.7083   -2.6887   -0.9027 H         1    LIG91    0.0000
     52 H17        -3.1936   -3.5972    0.0000 H         1    LIG91    0.0000
     53 H18        -1.7065   -3.1140   -0.9027 H         1    LIG91    0.0000
     54 H19        -1.7065   -3.1140    0.9027 H         1    LIG91    0.0000
     55 H20         2.8688    2.2300    0.0000 H         1    LIG91    0.0000
     56 H21         4.7136    2.7343    0.0000 H         1    LIG91    0.0000
     57 H22         6.0751    1.3888    0.0000 H         1    LIG91    0.0000
     58 H23         5.5959   -0.4585    0.0000 H         1    LIG91    0.0000
     59 H24         3.7508   -0.9731    0.0000 H         1    LIG91    0.0000
@<TRIPOS>BOND
     1    2    1 2
     2    2    3 ar
     3    3    4 2
     4    5    4 1
     5    6    5 2
     6    7    6 ar
     7    2    7 1
     8    7    8 ar
     9    9    8 1
    10   10    9 ar
    11   10   11 ar
    12   11   12 ar
    13   12   13 ar
    14   13   14 2
    15   14   15 am
    16   15   16 1
    17   16   17 2
    18   17   18 1
    19   16   19 1
    20   19   20 2
    21   22   21 2
    22   20   22 1
    23   15   23 2
    24   13   24 ar
    25    9   24 ar
    26    8   25 ar
    27   25   26 ar
    28    6   26 ar
    29   26   27 1
    30   27   28 1
    31   27   29 1
    32   27   30 1
    33   31   21 ar
    34   32   31 ar
    35   33   32 ar
    36   34   33 ar
    37   35   34 ar
    38   21   35 ar
    39    3   36 1
    40    4   37 1
    41   10   38 1
    42   11   39 1
    43   12   40 1
    44   14   41 1
    45   19   42 1
    46   20   43 1
    47   22   44 1
    48   24   45 1
    49   28   46 1
    50   28   47 1
    51   28   48 1
    52   29   49 1
    53   29   50 1
    54   29   51 1
    55   30   52 1
    56   30   53 1
    57   30   54 1
    58   31   55 1
    59   32   56 1
    60   33   57 1
    61   34   58 1
    62   35   59 1
@<TRIPOS>SUBSTRUCTURE
     1    LIG91    1   GROUP 1   LIG 1
@<TRIPOS>MOLECULE
51476392
   59    62    1     0     0
SMALL
USER_CHARGES


@<TRIPOS>ATOM
      1 O1         -4.1256    0.9146    0.0000 O.2       1    LIG92    0.0000
      2 C1         -4.1256    0.0896    0.0000 C.2       1    LIG92    0.0000
      3 N1         -4.8400   -0.3229    0.0000 N.am      1    LIG92    0.0000
      4 C2         -4.8400   -1.1478    0.0000 C.2       1    LIG92    0.0000
      5 N2         -4.1256   -1.5603    0.0000 N.2       1    LIG92    0.0000
      6 C3         -3.4112   -1.1478    0.0000 C.ar      1    LIG92    0.0000
      7 C4         -3.4112   -0.3229    0.0000 C.ar      1    LIG92    0.0000
      8 C5         -2.6265   -0.0679    0.0000 C.ar      1    LIG92    0.0000
      9 C6         -2.3716    0.7166    0.0000 C.ar      1    LIG92    0.0000
     10 C7         -2.9236    1.3297    0.0000 C.ar      1    LIG92    0.0000
     11 C8         -2.6686    2.1143    0.0000 C.ar      1    LIG92    0.0000
     12 C9         -1.8617    2.2859    0.0000 C.ar      1    LIG92    0.0000
     13 C10        -1.3096    1.6728    0.0000 C.ar      1    LIG92    0.0000
     14 N3         -0.5027    1.8443    0.0000 N.am      1    LIG92    0.0000
     15 C11         0.0493    1.2312    0.0000 C.2       1    LIG92    0.0000
     16 C12         0.8562    1.4028    0.0000 C.2       1    LIG92    0.0000
     17 C13         1.1111    2.1873    0.0000 C.2       1    LIG92    0.0000
     18 N4          1.3661    2.9720    0.0000 N.2       1    LIG92    1.0000
     19 C14         1.4398    0.8192    0.0000 C.2       1    LIG92    0.0000
     20 C15         2.2369    1.0328    0.0000 C.ar      1    LIG92    0.0000
     21 C16         2.4507    1.8300    0.0000 C.ar      1    LIG92    0.0000
     22 C17         3.2456    2.0421    0.0000 C.ar      1    LIG92    0.0000
     23 C18         3.8292    1.4584    0.0000 C.ar      1    LIG92    0.0000
     24 C19         3.6183    0.6649    0.0000 C.ar      1    LIG92    0.0000
     25 C20         2.8229    0.4468    0.0000 C.ar      1    LIG92    0.0000
     26 O2         -0.2056    0.4466    0.0000 O.2       1    LIG92    0.0000
     27 C21        -1.5646    0.8882    0.0000 C.ar      1    LIG92    0.0000
     28 N5         -2.1416   -0.7352    0.0000 N.ar      1    LIG92    0.0000
     29 N6         -2.6265   -1.4028    0.0000 N.pl3     1    LIG92    0.0000
     30 C22        -2.3716   -2.1873    0.0000 C.3       1    LIG92    0.0000
     31 C23        -1.5646   -2.3589    0.0000 C.3       1    LIG92    0.0000
     32 C24        -2.9236   -2.8005    0.0000 C.3       1    LIG92    0.0000
     33 C25        -2.1166   -2.9720    0.0000 C.3       1    LIG92    0.0000
     34 O3          4.6265    1.6720    0.0000 O.3       1    LIG92    0.0000
     35 C26         4.8400    2.4692    0.0000 C.3       1    LIG92    0.0000
     36 H1         -5.7320    0.1921    0.0000 H         1    LIG92    0.0000
     37 H2         -5.7840   -1.6928    0.0000 H         1    LIG92    0.0000
     38 H3         -3.9898    1.1031    0.0000 H         1    LIG92    0.0000
     39 H4         -3.3980    2.9243    0.0000 H         1    LIG92    0.0000
     40 H5         -1.5250    3.3226    0.0000 H         1    LIG92    0.0000
     41 H6         -0.1844    2.8239    0.0000 H         1    LIG92    0.0000
     42 H7          1.1577   -0.2337    0.0000 H         1    LIG92    0.0000
     43 H8          1.6804    2.6012    0.0000 H         1    LIG92    0.0000
     44 H9          3.5283    3.0948    0.0000 H         1    LIG92    0.0000
     45 H10         4.3921   -0.1028    0.0000 H         1    LIG92    0.0000
     46 H11         2.5439   -0.6069    0.0000 H         1    LIG92    0.0000
     47 H12        -0.8352    0.0782    0.0000 H         1    LIG92    0.0000
     48 H13        -1.4697   -3.4448    0.0000 H         1    LIG92    0.0000
     49 H14        -1.1445   -1.9154   -0.9027 H         1    LIG92    0.0000
     50 H15        -1.1445   -1.9154    0.9027 H         1    LIG92    0.0000
     51 H16        -2.3621   -3.7347    0.0000 H         1    LIG92    0.0000
     52 H17        -3.5242   -2.6887    0.9027 H         1    LIG92    0.0000
     53 H18        -3.5242   -2.6887   -0.9027 H         1    LIG92    0.0000
     54 H19        -3.0095   -3.5972    0.0000 H         1    LIG92    0.0000
     55 H20        -1.5224   -3.1140   -0.9027 H         1    LIG92    0.0000
     56 H21        -1.5224   -3.1140    0.9027 H         1    LIG92    0.0000
     57 H22         5.9293    2.5074    0.0000 H         1    LIG92    0.0000
     58 H23         4.4190    2.9119   -0.9027 H         1    LIG92    0.0000
     59 H24         4.4190    2.9119    0.9027 H         1    LIG92    0.0000
@<TRIPOS>BOND
     1    2    1 2
     2    2    3 ar
     3    3    4 2
     4    5    4 1
     5    6    5 2
     6    7    6 ar
     7    2    7 1
     8    7    8 ar
     9    9    8 1
    10   10    9 ar
    11   10   11 ar
    12   11   12 ar
    13   12   13 ar
    14   13   14 2
    15   14   15 am
    16   15   16 1
    17   16   17 2
    18   17   18 1
    19   16   19 1
    20   19   20 2
    21   21   20 ar
    22   22   21 ar
    23   23   22 ar
    24   24   23 ar
    25   25   24 ar
    26   20   25 ar
    27   15   26 2
    28   13   27 ar
    29    9   27 ar
    30    8   28 ar
    31   28   29 ar
    32    6   29 ar
    33   29   30 1
    34   30   31 1
    35   30   32 1
    36   30   33 1
    37   23   34 1
    38   34   35 1
    39    3   36 1
    40    4   37 1
    41   10   38 1
    42   11   39 1
    43   12   40 1
    44   14   41 1
    45   19   42 1
    46   21   43 1
    47   22   44 1
    48   24   45 1
    49   25   46 1
    50   27   47 1
    51   31   48 1
    52   31   49 1
    53   31   50 1
    54   32   51 1
    55   32   52 1
    56   32   53 1
    57   33   54 1
    58   33   55 1
    59   33   56 1
    60   35   57 1
    61   35   58 1
    62   35   59 1
@<TRIPOS>SUBSTRUCTURE
     1    LIG92    1   GROUP 1   LIG 1
@<TRIPOS>MOLECULE
50077206
   57    60    1     0     0
SMALL
USER_CHARGES


@<TRIPOS>ATOM
      1 C1         11.8220   -5.4450    0.4560 C.2       1    LIG93    0.0000
      2 C2         11.7460   -6.6560   -0.2700 C.2       1    LIG93    0.0000
      3 C3         12.1530   -7.8720    0.2990 C.2       1    LIG93    0.0000
      4 C4         12.3160   -5.4990    1.7830 C.2       1    LIG93    0.0000
      5 C5         12.7250   -6.7140    2.3820 C.2       1    LIG93    0.0000
      6 C6         12.6450   -7.9020    1.6120 C.2       1    LIG93    0.0000
      7 N1         13.0530   -9.0820    2.1370 N.2       1    LIG93    0.0000
      8 C7         13.5500   -9.2140    3.3930 C.2       1    LIG93    0.0000
      9 C8         13.6410   -8.0650    4.2010 C.2       1    LIG93    0.0000
     10 C9         13.2250   -6.8110    3.7070 C.2       1    LIG93    0.0000
     11 C10        11.4190   -4.2080   -0.1340 C.2       1    LIG93    0.0000
     12 C11        13.3260   -5.7270    4.5550 C.2       1    LIG93    0.0000
     13 O1         12.3860   -4.9700    4.7370 O.2       1    LIG93    0.0000
     14 O2         14.4280   -5.5140    5.2520 O.3       1    LIG93    0.0000
     15 C12        13.9560  -10.4870    3.8420 C.2       1    LIG93    0.0000
     16 N2         13.8420  -11.5470    3.0100 N.am      1    LIG93    0.0000
     17 O3         14.4110  -10.6490    4.9980 O.2       1    LIG93    0.0000
     18 C13        14.2120  -12.8840    3.3420 C.3       1    LIG93    0.0000
     19 C14        15.1670  -13.3500    2.3690 C.2       1    LIG93    0.0000
     20 C15        12.9620  -13.7930    3.3280 C.3       1    LIG93    0.0000
     21 C16        11.9610  -13.3970    4.3410 C.2       1    LIG93    0.0000
     22 O4         14.8280  -13.3570    1.0790 O.3       1    LIG93    0.0000
     23 O5         16.2690  -13.7300    2.7390 O.2       1    LIG93    0.0000
     24 C17        15.7760  -13.7890    0.1030 C.3       1    LIG93    0.0000
     25 C18        10.6960  -12.9120    3.9510 C.2       1    LIG93    0.0000
     26 C19         9.7500  -12.5300    4.9170 C.2       1    LIG93    0.0000
     27 C20        10.0590  -12.6310    6.2840 C.2       1    LIG93    0.0000
     28 C21        11.3170  -13.1150    6.6830 C.2       1    LIG93    0.0000
     29 C22        12.2620  -13.4970    5.7150 C.2       1    LIG93    0.0000
     30 O6          9.1450  -12.2610    7.2080 O.3       1    LIG93    0.0000
     31 C23        12.0900   -2.9970    0.1690 C.2       1    LIG93    0.0000
     32 C24        11.6970   -1.7810   -0.4150 C.2       1    LIG93    0.0000
     33 C25        10.6220   -1.7480   -1.3160 C.2       1    LIG93    0.0000
     34 C26         9.9420   -2.9340   -1.6320 C.2       1    LIG93    0.0000
     35 C27        10.3360   -4.1490   -1.0460 C.2       1    LIG93    0.0000
     36 H1         11.4070   -6.6620   -1.2330 H         1    LIG93    0.0000
     37 H2         12.0970   -8.7320   -0.2480 H         1    LIG93    0.0000
     38 H3         12.3710   -4.6360    2.3250 H         1    LIG93    0.0000
     39 H4         14.0060   -8.1410    5.1540 H         1    LIG93    0.0000
     40 H5         14.3720   -4.7340    5.8420 H         1    LIG93    0.0000
     41 H6         13.4770  -11.3850    2.1260 H         1    LIG93    0.0000
     42 H7         14.6740  -12.9350    4.3310 H         1    LIG93    0.0000
     43 H8         12.5190  -13.7580    2.3290 H         1    LIG93    0.0000
     44 H9         13.2660  -14.8220    3.5230 H         1    LIG93    0.0000
     45 H10        15.3240  -13.7230   -0.8870 H         1    LIG93    0.0000
     46 H11        16.6610  -13.1510    0.1340 H         1    LIG93    0.0000
     47 H12        16.0660  -14.8230    0.2950 H         1    LIG93    0.0000
     48 H13        10.4620  -12.8320    2.9610 H         1    LIG93    0.0000
     49 H14         8.8370  -12.1780    4.6260 H         1    LIG93    0.0000
     50 H15        11.5470  -13.1900    7.6740 H         1    LIG93    0.0000
     51 H16        13.1740  -13.8470    6.0140 H         1    LIG93    0.0000
     52 H17         9.4380  -12.3650    8.1370 H         1    LIG93    0.0000
     53 H18        12.8840   -2.9910    0.8100 H         1    LIG93    0.0000
     54 H19        12.1960   -0.9200   -0.1860 H         1    LIG93    0.0000
     55 H20        10.3370   -0.8660   -1.7400 H         1    LIG93    0.0000
     56 H21         9.1580   -2.9130   -2.2860 H         1    LIG93    0.0000
     57 H22         9.8150   -4.9930   -1.2870 H         1    LIG93    0.0000
@<TRIPOS>BOND
     1    1    2 2
     2    1    4 1
     3    1   11 1
     4    2    3 1
     5    2   36 1
     6    3    6 2
     7    3   37 1
     8    4    5 2
     9    4   38 1
    10    5    6 1
    11    5   10 1
    12    6    7 1
    13    7    8 2
    14    8    9 1
    15    8   15 1
    16    9   10 2
    17    9   39 1
    18   10   12 1
    19   11   31 2
    20   11   35 1
    21   12   13 2
    22   12   14 1
    23   14   40 1
    24   15   16 1
    25   15   17 2
    26   18   16 1
    27   16   41 1
    28   18   19 1
    29   18   20 1
    30   18   42 1
    31   19   22 1
    32   19   23 2
    33   20   21 1
    34   20   43 1
    35   20   44 1
    36   21   25 2
    37   21   29 1
    38   22   24 1
    39   24   45 1
    40   24   46 1
    41   24   47 1
    42   25   26 1
    43   25   48 1
    44   26   27 2
    45   26   49 1
    46   27   28 1
    47   27   30 1
    48   28   29 2
    49   28   50 1
    50   29   51 1
    51   30   52 1
    52   31   32 1
    53   31   53 1
    54   32   33 2
    55   32   54 1
    56   33   34 1
    57   33   55 1
    58   34   35 2
    59   34   56 1
    60   35   57 1
@<TRIPOS>SUBSTRUCTURE
     1    LIG93    1   GROUP 1   LIG 1
@<TRIPOS>MOLECULE
51476376
   54    56    1     0     0
SMALL
USER_CHARGES


@<TRIPOS>ATOM
      1 O1         -3.8731    0.1316    0.0000 O.2       1    LIG94    0.0000
      2 C1         -3.7190   -0.6788    0.0000 C.2       1    LIG94    0.0000
      3 N1         -4.3439   -1.2172    0.0000 N.am      1    LIG94    0.0000
      4 C2         -4.1891   -2.0309    0.0000 C.2       1    LIG94    0.0000
      5 N2         -3.4093   -2.2980    0.0000 N.1       1    LIG94    0.0000
      6 C3         -2.7887   -1.7609    0.0000 C.ar      1    LIG94    0.0000
      7 C4         -2.9429   -0.9504    0.0000 C.ar      1    LIG94    0.0000
      8 C5         -2.2197   -0.5534    0.0000 C.ar      1    LIG94    0.0000
      9 C6         -2.1587    0.2693    0.0000 C.ar      1    LIG94    0.0000
     10 C7         -2.8408    0.7336    0.0000 C.ar      1    LIG94    0.0000
     11 C8         -2.7792    1.5539    0.0000 C.ar      1    LIG94    0.0000
     12 C9         -2.0360    1.9126    0.0000 C.ar      1    LIG94    0.0000
     13 C10        -1.3564    1.4522    0.0000 C.ar      1    LIG94    0.0000
     14 N3         -0.6133    1.8107    0.0000 N.am      1    LIG94    0.0000
     15 C11         0.0685    1.3466    0.0000 C.2       1    LIG94    0.0000
     16 C12         0.8116    1.7052    0.0000 C.2       1    LIG94    0.0000
     17 C13         0.8725    2.5280    0.0000 C.2       1    LIG94    0.0000
     18 N4          0.9334    3.3508    0.0000 N.2       1    LIG94    1.0000
     19 C14         1.4937    1.2411    0.0000 C.2       1    LIG94    0.0000
     20 O2          0.0077    0.5238    0.0000 O.2       1    LIG94    0.0000
     21 C15        -1.4126    0.6294    0.0000 C.ar      1    LIG94    0.0000
     22 N5         -1.6186   -1.1186    0.0000 N.ar      1    LIG94    0.0000
     23 N6         -1.9704   -1.8648    0.0000 N.pl3     1    LIG94    0.0000
     24 C16        -1.6117   -2.6078    0.0000 C.3       1    LIG94    0.0000
     25 C17        -0.7890   -2.6687    0.0000 C.3       1    LIG94    0.0000
     26 C18        -2.0758   -3.2899    0.0000 C.3       1    LIG94    0.0000
     27 C19        -1.2531   -3.3508    0.0000 C.3       1    LIG94    0.0000
     28 C20         2.2367    1.5995    0.0000 C.2       1    LIG94    0.0000
     29 C21         2.9188    1.1356    0.0000 C.2       1    LIG94    0.0000
     30 C22         3.6618    1.4943    0.0000 C.2       1    LIG94    0.0000
     31 C23         4.3439    1.0301    0.0000 C.3       1    LIG94    0.0000
     32 H1         -5.3164   -0.8778    0.0000 H         1    LIG94    0.0000
     33 H2         -5.0126   -2.7450    0.0000 H         1    LIG94    0.0000
     34 H3         -3.8227    0.2604    0.0000 H         1    LIG94    0.0000
     35 H4         -3.6800    2.1676    0.0000 H         1    LIG94    0.0000
     36 H5         -1.9566    2.9997    0.0000 H         1    LIG94    0.0000
     37 H6         -0.5371    2.8379    0.0000 H         1    LIG94    0.0000
     38 H7          1.4131    0.1541    0.0000 H         1    LIG94    0.0000
     39 H8         -0.5097    0.0187    0.0000 H         1    LIG94    0.0000
     40 H9         -0.5481   -3.7318    0.0000 H         1    LIG94    0.0000
     41 H10        -0.4327   -2.1725   -0.9027 H         1    LIG94    0.0000
     42 H11        -0.4327   -2.1725    0.9027 H         1    LIG94    0.0000
     43 H12        -1.3933   -4.1398    0.0000 H         1    LIG94    0.0000
     44 H13        -2.6860   -3.2602    0.9027 H         1    LIG94    0.0000
     45 H14        -2.6860   -3.2602   -0.9027 H         1    LIG94    0.0000
     46 H15        -0.1758   -3.1847    0.0000 H         1    LIG94    0.0000
     47 H16        -1.5840   -3.8643    0.9027 H         1    LIG94    0.0000
     48 H17        -1.5840   -3.8643   -0.9027 H         1    LIG94    0.0000
     49 H18         2.3172    2.6865    0.0000 H         1    LIG94    0.0000
     50 H19         2.8385    0.0486    0.0000 H         1    LIG94    0.0000
     51 H20         3.7423    2.5813    0.0000 H         1    LIG94    0.0000
     52 H21         5.1938    1.7125    0.0000 H         1    LIG94    0.0000
     53 H22         4.3141    0.4199    0.9027 H         1    LIG94    0.0000
     54 H23         4.3141    0.4199   -0.9027 H         1    LIG94    0.0000
@<TRIPOS>BOND
     1    2    1 2
     2    2    3 ar
     3    3    4 1
     4    5    4 2
     5    6    5 2
     6    2    7 1
     7    7    6 ar
     8    7    8 ar
     9    9    8 1
    10   10    9 ar
    11   10   11 ar
    12   11   12 ar
    13   12   13 ar
    14   13   14 2
    15   14   15 am
    16   15   16 1
    17   17   16 1
    18   17   18 1
    19   16   19 2
    20   15   20 2
    21    9   21 ar
    22   13   21 ar
    23    8   22 ar
    24    6   23 ar
    25   22   23 ar
    26   23   24 1
    27   24   25 1
    28   24   26 1
    29   24   27 1
    30   19   28 2
    31   28   29 2
    32   29   30 1
    33   30   31 1
    34    3   32 1
    35    4   33 1
    36   10   34 1
    37   11   35 1
    38   12   36 1
    39   14   37 1
    40   19   38 1
    41   21   39 1
    42   25   40 1
    43   25   41 1
    44   25   42 1
    45   26   43 1
    46   26   44 1
    47   26   45 1
    48   27   46 1
    49   27   47 1
    50   27   48 1
    51   28   49 1
    52   29   50 1
    53   30   51 1
    54   31   52 1
    55   31   53 1
    56   31   54 1
@<TRIPOS>SUBSTRUCTURE
     1    LIG94    1   GROUP 1   LIG 1
@<TRIPOS>MOLECULE
50077184
   57    60    1     0     0
SMALL
USER_CHARGES


@<TRIPOS>ATOM
      1 C1          4.1010   -9.1980    0.4070 C.2       1    LIG95    0.0000
      2 C2          4.1830  -10.4330   -0.2790 C.2       1    LIG95    0.0000
      3 C3          4.7400  -11.5670    0.3310 C.2       1    LIG95    0.0000
      4 C4          4.6060   -9.1410    1.7290 C.2       1    LIG95    0.0000
      5 C5          5.1790  -10.2680    2.3620 C.2       1    LIG95    0.0000
      6 C6          5.2330  -11.4890    1.6420 C.2       1    LIG95    0.0000
      7 N1          5.7600  -12.5950    2.2190 N.2       1    LIG95    0.0000
      8 C7          6.2560  -12.6210    3.4830 C.2       1    LIG95    0.0000
      9 C8          6.2260  -11.4330    4.2380 C.2       1    LIG95    0.0000
     10 C9          5.6940  -10.2500    3.6840 C.2       1    LIG95    0.0000
     11 C10         3.5260   -8.0480   -0.2150 C.2       1    LIG95    0.0000
     12 C11         5.7070   -9.1110    4.4620 C.2       1    LIG95    0.0000
     13 O1          5.2820   -9.1240    5.6070 O.2       1    LIG95    0.0000
     14 O2          6.2270   -7.9840    4.0110 O.3       1    LIG95    0.0000
     15 C12         6.7880  -13.8220    3.9920 C.2       1    LIG95    0.0000
     16 N2          6.7700  -14.9370    3.2260 N.am      1    LIG95    0.0000
     17 O3          7.2950  -13.8700    5.1370 O.2       1    LIG95    0.0000
     18 C13         7.3000  -16.1950    3.6320 C.3       1    LIG95    0.0000
     19 C14         7.3580  -17.0510    2.4710 C.2       1    LIG95    0.0000
     20 C15         6.4250  -16.8310    4.7410 C.3       1    LIG95    0.0000
     21 C16         6.9760  -18.1080    5.2440 C.2       1    LIG95    0.0000
     22 O4          6.2580  -17.3650    1.8100 O.3       1    LIG95    0.0000
     23 O5          8.4230  -17.5020    2.0800 O.2       1    LIG95    0.0000
     24 C17         6.2910  -19.3210    5.0290 C.2       1    LIG95    0.0000
     25 C18         6.8250  -20.5330    5.5010 C.2       1    LIG95    0.0000
     26 C19         8.0470  -20.5410    6.1950 C.2       1    LIG95    0.0000
     27 C20         8.7330  -19.3350    6.4170 C.2       1    LIG95    0.0000
     28 C21         8.1990  -18.1240    5.9440 C.2       1    LIG95    0.0000
     29 C22         3.6910   -7.8040   -1.5980 C.2       1    LIG95    0.0000
     30 C23         3.1260   -6.6720   -2.2070 C.2       1    LIG95    0.0000
     31 C24         2.3850   -5.7620   -1.4410 C.2       1    LIG95    0.0000
     32 C25         2.1930   -5.9660   -0.0580 C.2       1    LIG95    0.0000
     33 C26         2.7700   -7.1130    0.5340 C.2       1    LIG95    0.0000
     34 C27         1.3980   -4.9800    0.7220 C.3       1    LIG95    0.0000
     35 F1          1.2820   -5.2830    2.0600 F         1    LIG95    0.0000
     36 F2          1.9780   -3.7370    0.6440 F         1    LIG95    0.0000
     37 F3          0.1230   -4.8980    0.2180 F         1    LIG95    0.0000
     38 O6          8.5560  -21.7090    6.6450 O.3       1    LIG95    0.0000
     39 H1          3.8220  -10.5220   -1.2290 H         1    LIG95    0.0000
     40 H2          4.7820  -12.4490   -0.1800 H         1    LIG95    0.0000
     41 H3          4.5610   -8.2560    2.2360 H         1    LIG95    0.0000
     42 H4          6.5960  -11.4260    5.1910 H         1    LIG95    0.0000
     43 H5          6.2010   -7.2530    4.6620 H         1    LIG95    0.0000
     44 H6          6.3970  -14.8630    2.3330 H         1    LIG95    0.0000
     45 H7          8.3160  -16.0430    4.0060 H         1    LIG95    0.0000
     46 H8          6.3480  -16.1410    5.5820 H         1    LIG95    0.0000
     47 H9          5.4190  -16.9810    4.3440 H         1    LIG95    0.0000
     48 H10         6.4160  -17.9590    1.0480 H         1    LIG95    0.0000
     49 H11         5.4060  -19.3260    4.5220 H         1    LIG95    0.0000
     50 H12         6.3250  -21.4070    5.3380 H         1    LIG95    0.0000
     51 H13         9.6200  -19.3360    6.9210 H         1    LIG95    0.0000
     52 H14         8.7040  -17.2530    6.1090 H         1    LIG95    0.0000
     53 H15         4.2360   -8.4440   -2.1760 H         1    LIG95    0.0000
     54 H16         3.2570   -6.5110   -3.2060 H         1    LIG95    0.0000
     55 H17         1.9800   -4.9410   -1.8940 H         1    LIG95    0.0000
     56 H18         2.6240   -7.2730    1.5310 H         1    LIG95    0.0000
     57 H19         9.4120  -21.6270    7.1160 H         1    LIG95    0.0000
@<TRIPOS>BOND
     1    1    2 2
     2    1    4 1
     3    1   11 1
     4    2    3 1
     5    2   39 1
     6    3    6 2
     7    3   40 1
     8    4    5 2
     9    4   41 1
    10    5    6 1
    11    5   10 1
    12    6    7 1
    13    7    8 2
    14    8    9 1
    15    8   15 1
    16    9   10 2
    17    9   42 1
    18   10   12 1
    19   11   29 2
    20   11   33 1
    21   12   13 2
    22   12   14 1
    23   14   43 1
    24   15   16 1
    25   15   17 2
    26   18   16 1
    27   16   44 1
    28   18   19 1
    29   18   20 1
    30   18   45 1
    31   19   22 1
    32   19   23 2
    33   20   21 1
    34   20   46 1
    35   20   47 1
    36   21   24 2
    37   21   28 1
    38   22   48 1
    39   24   25 1
    40   24   49 1
    41   25   26 2
    42   25   50 1
    43   26   27 1
    44   26   38 1
    45   27   28 2
    46   27   51 1
    47   28   52 1
    48   29   30 1
    49   29   53 1
    50   30   31 2
    51   30   54 1
    52   31   32 1
    53   31   55 1
    54   32   33 2
    55   32   34 1
    56   33   56 1
    57   34   35 1
    58   34   36 1
    59   34   37 1
    60   38   57 1
@<TRIPOS>SUBSTRUCTURE
     1    LIG95    1   GROUP 1   LIG 1
@<TRIPOS>MOLECULE
51476387
   57    60    1     0     0
SMALL
USER_CHARGES


@<TRIPOS>ATOM
      1 O1         -3.6202    0.9146    0.0000 O.2       1    LIG96    0.0000
      2 C1         -3.6202    0.0896    0.0000 C.2       1    LIG96    0.0000
      3 N1         -4.3347   -0.3229    0.0000 N.am      1    LIG96    0.0000
      4 C2         -4.3347   -1.1478    0.0000 C.2       1    LIG96    0.0000
      5 N2         -3.6202   -1.5603    0.0000 N.2       1    LIG96    0.0000
      6 C3         -2.9058   -1.1478    0.0000 C.ar      1    LIG96    0.0000
      7 C4         -2.9058   -0.3229    0.0000 C.ar      1    LIG96    0.0000
      8 C5         -2.1212   -0.0679    0.0000 C.ar      1    LIG96    0.0000
      9 C6         -1.8662    0.7166    0.0000 C.ar      1    LIG96    0.0000
     10 C7         -2.4183    1.3297    0.0000 C.ar      1    LIG96    0.0000
     11 C8         -2.1633    2.1143    0.0000 C.ar      1    LIG96    0.0000
     12 C9         -1.3563    2.2859    0.0000 C.ar      1    LIG96    0.0000
     13 C10        -0.8043    1.6728    0.0000 C.ar      1    LIG96    0.0000
     14 N3          0.0026    1.8443    0.0000 N.am      1    LIG96    0.0000
     15 C11         0.5545    1.2312    0.0000 C.2       1    LIG96    0.0000
     16 C12         1.3616    1.4028    0.0000 C.2       1    LIG96    0.0000
     17 C13         1.6164    2.1873    0.0000 C.2       1    LIG96    0.0000
     18 N4          1.8714    2.9720    0.0000 N.2       1    LIG96    1.0000
     19 C14         1.9451    0.8192    0.0000 C.2       1    LIG96    0.0000
     20 C15         2.7421    1.0328    0.0000 C.ar      1    LIG96    0.0000
     21 C16         2.9561    1.8300    0.0000 C.ar      1    LIG96    0.0000
     22 C17         3.7510    2.0421    0.0000 C.ar      1    LIG96    0.0000
     23 C18         4.3347    1.4584    0.0000 C.ar      1    LIG96    0.0000
     24 C19         4.1237    0.6649    0.0000 C.ar      1    LIG96    0.0000
     25 C20         3.3283    0.4468    0.0000 C.ar      1    LIG96    0.0000
     26 O2          0.2996    0.4466    0.0000 O.2       1    LIG96    0.0000
     27 C21        -1.0592    0.8882    0.0000 C.ar      1    LIG96    0.0000
     28 N5         -1.6362   -0.7352    0.0000 N.ar      1    LIG96    0.0000
     29 N6         -2.1212   -1.4028    0.0000 N.pl3     1    LIG96    0.0000
     30 C22        -1.8662   -2.1873    0.0000 C.3       1    LIG96    0.0000
     31 C23        -1.0592   -2.3589    0.0000 C.3       1    LIG96    0.0000
     32 C24        -2.4183   -2.8005    0.0000 C.3       1    LIG96    0.0000
     33 C25        -1.6113   -2.9720    0.0000 C.3       1    LIG96    0.0000
     34 N7          3.1147   -0.3502    0.0000 N.pl3     1    LIG96    0.0000
     35 O3          2.3176   -0.5639    0.0000 O.2       1    LIG96    0.0000
     36 O4          3.6982   -0.9338    0.0000 O.2       1    LIG96    0.0000
     37 H1         -5.2267    0.1921    0.0000 H         1    LIG96    0.0000
     38 H2         -5.2787   -1.6928    0.0000 H         1    LIG96    0.0000
     39 H3         -3.4845    1.1031    0.0000 H         1    LIG96    0.0000
     40 H4         -2.8927    2.9243    0.0000 H         1    LIG96    0.0000
     41 H5         -1.0195    3.3226    0.0000 H         1    LIG96    0.0000
     42 H6          0.3210    2.8239    0.0000 H         1    LIG96    0.0000
     43 H7          1.6630   -0.2337    0.0000 H         1    LIG96    0.0000
     44 H8          2.1859    2.6013    0.0000 H         1    LIG96    0.0000
     45 H9          4.0337    3.0948    0.0000 H         1    LIG96    0.0000
     46 H10         5.3873    1.7415    0.0000 H         1    LIG96    0.0000
     47 H11         4.8974   -0.1029    0.0000 H         1    LIG96    0.0000
     48 H12        -0.3298    0.0782    0.0000 H         1    LIG96    0.0000
     49 H13        -0.9643   -3.4448    0.0000 H         1    LIG96    0.0000
     50 H14        -0.6391   -1.9154   -0.9027 H         1    LIG96    0.0000
     51 H15        -0.6391   -1.9154    0.9027 H         1    LIG96    0.0000
     52 H16        -1.8569   -3.7348    0.0000 H         1    LIG96    0.0000
     53 H17        -3.0189   -2.6886    0.9027 H         1    LIG96    0.0000
     54 H18        -3.0189   -2.6886   -0.9027 H         1    LIG96    0.0000
     55 H19        -0.5215   -2.9531    0.0000 H         1    LIG96    0.0000
     56 H20        -2.0085   -3.4361    0.9027 H         1    LIG96    0.0000
     57 H21        -2.0085   -3.4361   -0.9027 H         1    LIG96    0.0000
@<TRIPOS>BOND
     1    2    1 2
     2    2    3 ar
     3    3    4 2
     4    5    4 1
     5    6    5 2
     6    2    7 1
     7    7    6 ar
     8    7    8 ar
     9    9    8 1
    10   10    9 ar
    11   10   11 ar
    12   11   12 ar
    13   12   13 ar
    14   13   14 2
    15   14   15 am
    16   15   16 1
    17   16   17 2
    18   17   18 1
    19   16   19 1
    20   19   20 2
    21   21   20 ar
    22   22   21 ar
    23   23   22 ar
    24   24   23 ar
    25   20   25 ar
    26   25   24 ar
    27   15   26 2
    28    9   27 ar
    29   13   27 ar
    30    8   28 ar
    31    6   29 ar
    32   28   29 ar
    33   29   30 1
    34   30   31 1
    35   30   32 1
    36   30   33 1
    37   25   34 1
    38   34   35 2
    39   34   36 2
    40    3   37 1
    41    4   38 1
    42   10   39 1
    43   11   40 1
    44   12   41 1
    45   14   42 1
    46   19   43 1
    47   21   44 1
    48   22   45 1
    49   23   46 1
    50   24   47 1
    51   27   48 1
    52   31   49 1
    53   31   50 1
    54   31   51 1
    55   32   52 1
    56   32   53 1
    57   32   54 1
    58   33   55 1
    59   33   56 1
    60   33   57 1
@<TRIPOS>SUBSTRUCTURE
     1    LIG96    1   GROUP 1   LIG 1
@<TRIPOS>MOLECULE
51476388
   55    58    1     0     0
SMALL
USER_CHARGES


@<TRIPOS>ATOM
      1 O1         -3.8065    0.9146    0.0000 O.2       1    LIG97    0.0000
      2 C1         -3.8065    0.0896    0.0000 C.2       1    LIG97    0.0000
      3 N1         -4.5210   -0.3229    0.0000 N.am      1    LIG97    0.0000
      4 C2         -4.5210   -1.1478    0.0000 C.2       1    LIG97    0.0000
      5 N2         -3.8065   -1.5603    0.0000 N.2       1    LIG97    0.0000
      6 C3         -3.0921   -1.1478    0.0000 C.ar      1    LIG97    0.0000
      7 C4         -3.0921   -0.3229    0.0000 C.ar      1    LIG97    0.0000
      8 C5         -2.3074   -0.0679    0.0000 C.ar      1    LIG97    0.0000
      9 C6         -2.0525    0.7166    0.0000 C.ar      1    LIG97    0.0000
     10 C7         -2.6044    1.3297    0.0000 C.ar      1    LIG97    0.0000
     11 C8         -2.3496    2.1143    0.0000 C.ar      1    LIG97    0.0000
     12 C9         -1.5426    2.2859    0.0000 C.ar      1    LIG97    0.0000
     13 C10        -0.9906    1.6728    0.0000 C.ar      1    LIG97    0.0000
     14 N3         -0.1836    1.8443    0.0000 N.am      1    LIG97    0.0000
     15 C11         0.3683    1.2312    0.0000 C.2       1    LIG97    0.0000
     16 C12         1.1753    1.4028    0.0000 C.2       1    LIG97    0.0000
     17 C13         1.4302    2.1873    0.0000 C.2       1    LIG97    0.0000
     18 N4          1.6852    2.9720    0.0000 N.2       1    LIG97    1.0000
     19 C14         1.7588    0.8192    0.0000 C.2       1    LIG97    0.0000
     20 C15         2.5560    1.0328    0.0000 C.ar      1    LIG97    0.0000
     21 C16         2.7698    1.8300    0.0000 C.ar      1    LIG97    0.0000
     22 C17         3.5648    2.0421    0.0000 C.ar      1    LIG97    0.0000
     23 C18         4.1484    1.4584    0.0000 C.ar      1    LIG97    0.0000
     24 C19         3.9374    0.6649    0.0000 C.ar      1    LIG97    0.0000
     25 C20         3.1420    0.4468    0.0000 C.ar      1    LIG97    0.0000
     26 O2          0.1134    0.4466    0.0000 O.2       1    LIG97    0.0000
     27 C21        -1.2455    0.8882    0.0000 C.ar      1    LIG97    0.0000
     28 N5         -1.8225   -0.7352    0.0000 N.ar      1    LIG97    0.0000
     29 N6         -2.3074   -1.4028    0.0000 N.pl3     1    LIG97    0.0000
     30 C22        -2.0525   -2.1873    0.0000 C.3       1    LIG97    0.0000
     31 C23        -1.2455   -2.3589    0.0000 C.3       1    LIG97    0.0000
     32 C24        -2.6044   -2.8005    0.0000 C.3       1    LIG97    0.0000
     33 C25        -1.7975   -2.9720    0.0000 C.3       1    LIG97    0.0000
     34 Br1         4.5210    0.0813    0.0000 Br        1    LIG97    0.0000
     35 H1         -5.4130    0.1921    0.0000 H         1    LIG97    0.0000
     36 H2         -5.4650   -1.6928    0.0000 H         1    LIG97    0.0000
     37 H3         -3.6706    1.1031    0.0000 H         1    LIG97    0.0000
     38 H4         -3.0790    2.9242    0.0000 H         1    LIG97    0.0000
     39 H5         -1.2058    3.3226    0.0000 H         1    LIG97    0.0000
     40 H6          0.1348    2.8239    0.0000 H         1    LIG97    0.0000
     41 H7          1.4766   -0.2336    0.0000 H         1    LIG97    0.0000
     42 H8          1.9996    2.6012    0.0000 H         1    LIG97    0.0000
     43 H9          3.8475    3.0948    0.0000 H         1    LIG97    0.0000
     44 H10         5.2010    1.7415    0.0000 H         1    LIG97    0.0000
     45 H11         2.8630   -0.6069    0.0000 H         1    LIG97    0.0000
     46 H12        -0.5161    0.0782    0.0000 H         1    LIG97    0.0000
     47 H13        -1.1506   -3.4448    0.0000 H         1    LIG97    0.0000
     48 H14        -0.8254   -1.9154   -0.9027 H         1    LIG97    0.0000
     49 H15        -0.8254   -1.9154    0.9027 H         1    LIG97    0.0000
     50 H16        -2.0428   -3.7347    0.0000 H         1    LIG97    0.0000
     51 H17        -3.2050   -2.6887    0.9027 H         1    LIG97    0.0000
     52 H18        -3.2050   -2.6887   -0.9027 H         1    LIG97    0.0000
     53 H19        -2.6904   -3.5972    0.0000 H         1    LIG97    0.0000
     54 H20        -1.2033   -3.1140   -0.9027 H         1    LIG97    0.0000
     55 H21        -1.2033   -3.1140    0.9027 H         1    LIG97    0.0000
@<TRIPOS>BOND
     1    2    1 2
     2    2    3 ar
     3    3    4 2
     4    5    4 1
     5    6    5 2
     6    7    6 ar
     7    2    7 1
     8    7    8 ar
     9    9    8 1
    10   10    9 ar
    11   10   11 ar
    12   11   12 ar
    13   12   13 ar
    14   13   14 2
    15   14   15 am
    16   15   16 1
    17   16   17 2
    18   17   18 1
    19   16   19 1
    20   19   20 2
    21   21   20 ar
    22   22   21 ar
    23   23   22 ar
    24   24   23 ar
    25   25   24 ar
    26   20   25 ar
    27   15   26 2
    28   13   27 ar
    29    9   27 ar
    30    8   28 ar
    31   28   29 ar
    32    6   29 ar
    33   29   30 1
    34   30   31 1
    35   30   32 1
    36   30   33 1
    37   24   34 1
    38    3   35 1
    39    4   36 1
    40   10   37 1
    41   11   38 1
    42   12   39 1
    43   14   40 1
    44   19   41 1
    45   21   42 1
    46   22   43 1
    47   23   44 1
    48   25   45 1
    49   27   46 1
    50   31   47 1
    51   31   48 1
    52   31   49 1
    53   32   50 1
    54   32   51 1
    55   32   52 1
    56   33   53 1
    57   33   54 1
    58   33   55 1
@<TRIPOS>SUBSTRUCTURE
     1    LIG97    1   GROUP 1   LIG 1
