ttt_mol_1

Vconf v2.1
 50 52  0  0  0  0  0  0  0  0999 V2000
    1.7330    2.9850    1.1740 N   0  0  0  0  0  0  0  0  0  0  0
    0.8990    2.3630    0.3070 C   0  0  0  0  0  0  0  0  0  0  0
    0.2570    1.2530    0.8690 C   0  0  0  0  0  0  0  0  0  0  0
    0.7160    1.0150    2.5260 S   0  0  0  0  0  0  0  0  0  0  0
    1.7470    2.3920    2.3830 C   0  0  0  0  0  0  0  0  0  0  0
    0.6980    2.8230   -1.0740 C   0  0  0  0  0  0  0  0  0  0  0
    2.4400    2.7880    3.3460 O   0  0  0  0  0  0  0  0  0  0  0
   -0.6570    0.3630    0.2480 C   0  0  0  0  0  0  0  0  0  0  0
   -1.1890   -0.7000    1.0030 C   0  0  0  0  0  0  0  0  0  0  0
   -2.0730   -1.5850    0.3790 C   0  0  0  0  0  0  0  0  0  0  0
   -2.3970   -1.4060   -0.9200 N   0  0  0  0  0  0  0  0  0  0  0
   -1.9000   -0.3860   -1.6560 C   0  0  0  0  0  0  0  0  0  0  0
   -1.0390    0.4810   -1.0560 N   0  0  0  0  0  0  0  0  0  0  0
   -2.3260   -0.3600   -2.9460 N   0  0  0  0  0  0  0  0  0  0  0
   -2.0600    0.5130   -3.9570 C   0  0  0  0  0  0  0  0  0  0  0
   -1.0540    2.5100   -4.9600 C   0  0  0  0  0  0  0  0  0  0  0
   -1.2670    1.6750   -3.8510 C   0  0  0  0  0  0  0  0  0  0  0
   -2.6410    0.2150   -5.2060 C   0  0  0  0  0  0  0  0  0  0  0
   -2.4290    1.0440   -6.3210 C   0  0  0  0  0  0  0  0  0  0  0
   -1.6320    2.1960   -6.2020 C   0  0  0  0  0  0  0  0  0  0  0
   -1.3700    3.2380   -7.5670 S   0  0  0  0  0  0  0  0  0  0  0
    2.5140    4.1380    0.8550 C   0  0  0  0  0  0  0  0  0  0  0
    0.1710    3.6290   -7.5420 O   0  0  0  0  0  0  0  0  0  0  0
   -2.1430    2.6790   -8.8400 O   0  0  0  0  0  0  0  0  0  0  0
   -2.1080    4.6870   -7.1380 N   0  0  0  0  0  0  0  0  0  0  0
   -3.4160    5.0170   -7.5690 C   0  0  0  0  0  0  0  0  0  0  0
   -4.4580    4.0370   -7.0130 C   0  0  0  0  0  0  0  0  0  0  0
   -4.3730    3.9910   -5.5900 O   0  0  0  0  0  0  0  0  0  0  0
   -5.2900    3.1320   -4.9200 C   0  0  0  0  0  0  0  0  0  0  0
    0.9820    2.0270   -1.7630 H   0  0  0  0  0  0  0  0  0  0  0
   -0.3510    3.0830   -1.2120 H   0  0  0  0  0  0  0  0  0  0  0
    1.3010    3.7010   -1.2960 H   0  0  0  0  0  0  0  0  0  0  0
   -0.9460   -0.8410    1.9840 H   0  0  0  0  0  0  0  0  0  0  0
   -2.4690   -2.3670    0.9010 H   0  0  0  0  0  0  0  0  0  0  0
   -2.9170   -1.0920   -3.1830 H   0  0  0  0  0  0  0  0  0  0  0
   -0.4780    3.3470   -4.8640 H   0  0  0  0  0  0  0  0  0  0  0
   -0.8450    1.9270   -2.9680 H   0  0  0  0  0  0  0  0  0  0  0
   -3.2240   -0.6170   -5.3120 H   0  0  0  0  0  0  0  0  0  0  0
   -2.8590    0.8130   -7.2160 H   0  0  0  0  0  0  0  0  0  0  0
    3.1160    4.4660    1.7050 H   0  0  0  0  0  0  0  0  0  0  0
    3.1870    3.9070    0.0280 H   0  0  0  0  0  0  0  0  0  0  0
    1.8550    4.9580    0.5640 H   0  0  0  0  0  0  0  0  0  0  0
   -1.6160    5.3170   -6.5900 H   0  0  0  0  0  0  0  0  0  0  0
   -3.6570    6.0210   -7.2200 H   0  0  0  0  0  0  0  0  0  0  0
   -3.4510    5.0010   -8.6590 H   0  0  0  0  0  0  0  0  0  0  0
   -5.4520    4.3740   -7.3090 H   0  0  0  0  0  0  0  0  0  0  0
   -4.2850    3.0430   -7.4270 H   0  0  0  0  0  0  0  0  0  0  0
   -5.0950    3.1680   -3.8480 H   0  0  0  0  0  0  0  0  0  0  0
   -6.3120    3.4620   -5.1100 H   0  0  0  0  0  0  0  0  0  0  0
   -5.1670    2.1080   -5.2730 H   0  0  0  0  0  0  0  0  0  0  0
  1  2  1  0  0  0  0
  1  5  1  0  0  0  0
  1 22  1  0  0  0  0
  2  3  2  0  0  0  0
  2  6  1  0  0  0  0
  3  4  1  0  0  0  0
  3  8  1  0  0  0  0
  4  5  1  0  0  0  0
  5  7  2  0  0  0  0
  6 30  1  0  0  0  0
  6 31  1  0  0  0  0
  6 32  1  0  0  0  0
  8  9  2  0  0  0  0
  8 13  1  0  0  0  0
  9 10  1  0  0  0  0
  9 33  1  0  0  0  0
 10 11  2  0  0  0  0
 10 34  1  0  0  0  0
 11 12  1  0  0  0  0
 12 13  2  0  0  0  0
 12 14  1  0  0  0  0
 14 15  1  0  0  0  0
 14 35  1  0  0  0  0
 15 17  2  0  0  0  0
 15 18  1  0  0  0  0
 16 17  1  0  0  0  0
 16 20  2  0  0  0  0
 16 36  1  0  0  0  0
 17 37  1  0  0  0  0
 18 19  2  0  0  0  0
 18 38  1  0  0  0  0
 19 20  1  0  0  0  0
 19 39  1  0  0  0  0
 20 21  1  0  0  0  0
 21 23  2  0  0  0  0
 21 24  2  0  0  0  0
 21 25  1  0  0  0  0
 22 40  1  0  0  0  0
 22 41  1  0  0  0  0
 22 42  1  0  0  0  0
 25 26  1  0  0  0  0
 25 43  1  0  0  0  0
 26 27  1  0  0  0  0
 26 44  1  0  0  0  0
 26 45  1  0  0  0  0
 27 28  1  0  0  0  0
 27 46  1  0  0  0  0
 27 47  1  0  0  0  0
 28 29  1  0  0  0  0
 29 48  1  0  0  0  0
 29 49  1  0  0  0  0
 29 50  1  0  0  0  0
M  END
> <From>
www.bindingDB.org

> <BindingDB Reactant_set_id>
153788

> <Ligand InChI>
InChI=1S/C18H21N5O4S2/c1-12-16(28-18(24)23(12)2)15-8-9-19-17(22-15)21-13-4-6-14(7-5-13)29(25,26)20-10-11-27-3/h4-9,20H,10-11H2,1-3H3,(H,19,21,22)

> <Ligand InChI Key>
WQZVTNFUNLTGDW-UHFFFAOYSA-N

> <BindingDB MonomerID>
81438

> <BindingDB Ligand Name>
CDK Inhibitor, 11

> <Target Name Assigned by Curator or DataSource>
Cyclin-dependent kinase 2

> <Target Source Organism According to Curator or DataSource>
Homo sapiens

> <Ki (nM)>
 0.11

> <IC50 (nM)>


> <Kd (nM)>


> <EC50 (nM)>


> <kon (M-1-s-1)>


> <koff (s-1)>


> <pH>


> <Temp C>


> <Curation/DataSource>
Curated from the literature by BindingDB

> <Article DOI>
10.1016/j.chembiol.2010.07.016

> <PMID>
21035734

> <PubChem AID>


> <Patent Number>


> <Authors>
Wang, S; Griffiths, G; Midgley, CA; Barnett, AL; Cooper, M; Grabarek, J; Ingram, L; Jackson, W; Kontopidis, G; McClue, SJ; McInnes, C; McLachlan, J; Meades, C; Mezna, M; Stuart, I; Thomas, MP; Zheleva, DI; Lane, DP; Jackson, RC; Glover, DM; Blake, DG; Fischer, PM

> <Institution>
Cyclacel Limited

> <Link to Ligand in BindingDB>
http://www.bindingdb.org/bind/chemsearch/marvin/MolStructure.jsp?monomerid=81438

> <Link to Ligand-Target Pair in BindingDB>
http://www.bindingdb.org/jsp/dbsearch/PrimarySearch_ki.jsp?energyterm=kJ/mole&tag=pol&polymerid=796&target=Cyclin-dependent+kinase+2&column=ki&startPg=0&Increment=50&submit=Search

> <Link to Ligand-Target Pair in BindingDB>
http://www.bindingdb.org/jsp/dbsearch/PrimarySearch_ki.jsp?energyterm=kJ/mole&tag=r21&monomerid=81438&enzyme=Cyclin-dependent+kinase+2&column=ki&startPg=0&Increment=50&submit=Search

> <Ligand HET ID in PDB>
CDK

> <PDB ID(s) for Ligand-Target Complex>
2XMY

> <PubChem CID>
11339532

> <PubChem SID>
131342012

> <ChEBI ID of Ligand>


> <ChEMBL ID of Ligand>


> <DrugBank ID of Ligand>


> <IUPHAR_GRAC ID of Ligand>


> <KEGG ID of Ligand>


> <ZINC ID of Ligand>
ZINC58633057

> <Number of Protein Chains in Target (bigger than 1 implies a multichain complex)>
1

> <BindingDB Target Chain Sequence>
MENFQKVEKIGEGTYGVVYKARNKLTGEVVALKKIRLDTETEGVPSTAIREISLLKELNHPNIVKLLDVIHTENKLYLVFEFLHQDLKKFMDASALTGIPLPLIKSYLFQLLQGLAFCHSHRVLHRDLKPQNLLINTEGAIKLADFGLARAFGVPVRTYTHEVVTLWYRAPEILLGCKYYSTAVDIWSLGCIFAEMVTRRALFPGDSEIDQLFRIFRTLGTPDEVVWPGVTSMPDYKPSFPKWARQDFSKVVPPLDEDGRSLLSQMLHYDPNKRISAKAALAHPFFQDVTKPVPHLRL

> <PDB ID(s) of Target Chain>
1CKP,1DI8,1DM2,1E1V,1E1X,1E9H,1F5Q,1FIN,1FQ1,1FVT,1FVV,1G5S,1GIH,1GY3,1GZ8,1H00,1H01,1H07,1H08,1H0V,1H0W,1H1P,1H1Q,1H1R,1H1S,1H24,1H25,1H26,1H27,1H28,1HCK,1HCL,1JST,1JSU,1JSV,1JVP,1KE5,1KE6,1KE7,1KE8,1KE9,1OGU,1OI9,1OIQ,1OIR,1OIU,1OIY,1OKV,1OKW,1OL1,1OL2,1P2A,1P5E,1PF8,1PKD,1PW2,1PXI,1PXJ,1PXK,1PXL,1PXM,1PXN,1PXO,1PXP,1PYE,1QMZ,1R78,1URC,1URW,1V1K,1VYW,1VYZ,1W0X,1W8C,1W98,1WCC,1Y8Y,1Y91,1YKR,2A0C,2A4L,2B52,2B53,2B54,2B55,2BHE,2BHH,2BKZ,2BPM,2BTR,2BTS,2C4G,2C5N,2C5O,2C5V,2C5X,2C5Y,2C68,2C69,2C6I,2C6K,2C6L,2C6M,2C6O,2C6T,2CCH,2CCI,2CJM,2CLX,2DUV,2EXM,2FVD,2G9X,2I40,2J9M,2JGZ,2R3F,2R3G,2R3H,2R3I,2R3J,2R3K,2R3L,2R3M,2R3N,2R3O,2R3P,2R3Q,2R3R,2R64,2UUE,2UZB,2UZD,2UZE,2UZL,2UZN,2UZO,2V0D,2V22,2VTA,2VTH,2VTI,2VTJ,2VTL,2VTM,2VTN,2VTO,2VTP,2VTQ,2VTR,2VTS,2VTT,2VU3,2VV9,2W05,2W06,2W17,2W1H,2WEV,2WFY,2WHB,2WIH,2WIP,2WMA,2WMB,2WPA,2WXV,2X1N,2XMY,2XNB,3BHT,3BHU,3BHV,3DDP,3DDQ,3DOG,3EID,3EJ1,3EOC,3EZR,3EZV,3F5X,3FZ1,3IG7,3IGG,3LE6,3LFN,3LFQ,3LFS,3MY5,3NS9,3PJ8,3PXF,3PXQ,3PXR,3PXY,3PXZ,3PY0,3PY1,3QHR,3QHW,3QL8,3QQF,3QQG,3QQH,3QQJ,3QQK,3QQL,3QRT,3QRU,3QTQ,3QTR,3QTS,3QTU,3QTW,3QTX,3QTZ,3QU0,3QWJ,3QWK,3QX2,3QX4,3QXO,3QXP,3QZF,3QZG,3QZH,3QZI,3R1Q,3R1S,3R1Y,3R28,3R6X,3R71,3R73,3R7E,3R7I,3R7U,3R7V,3R7Y,3R83,3R8L,3R8M,3R8P,3R8U,3R8V,3R8Z,3R9D,3R9H,3R9N,3R9O,3RAH,3RAI,3RAK,3RAL,3RJC,3RK5,3RK7,3RK9,3RKB,3RM6,3RM7,3RMF,3RNI,3ROY,3RPO,3RPR,3RPV,3RPY,3RZB,3S00,3S0O,3S1H,3S2P,3SQQ,3SW4,3SW7,3TI1,3TIY,3TIZ,3TNW,3ULI,3UNJ,3UNK,3WBL,4ACM,4BCK,4BCM,4BCN,4BCO,4BCP,4BCQ,4BGH,4BZD,4CFM,4CFN,4CFU,4CFV,4CFW,4CFX,4D1X,4D1Z,4EK3,4EK4,4EK5,4EK6,4EK8,4EOQ,4EOR,4EOS,4ERW,4EZ3,4EZ7,4FKG,4FKI,4FKJ,4FKL,4FKO,4FKP,4FKQ,4FKR,4FKS,4FKT,4FKU,4FKV,4FKW,4FX3,4GCJ,4I3Z,4II5,4KD1,4LYN,4NJ3,4RJ3,5A14,5AND,5ANE,5ANG,5ANI,5ANJ,5ANK,5ANO,5CYI,5D1J,5FP5,5FP6,5IEV,5IEX,5IEY,5IF1,5JQ5,5JQ8,5K4J,5L2W,5LMK,5MHQ,5NEV,5OO0,5OSJ,5UQ1,5UQ2,5UQ3,6ATH,6GUB,6GUC,6GUE,6GUF,6GUH,6GUK,6GVA,6INL,6JGM,6OQI,6P3W,6Q3B,6Q3C,6Q3F,6Q48,6Q49,6Q4A,6Q4B,6Q4C,6Q4D,6Q4E,6Q4F,6Q4H,6Q4J,6Q4K,6RIJ,6SG4,7ACK,7B5L,7B5R,7B7S,7E34,7KJS,7M2F,7NVQ

> <UniProt (SwissProt) Recommended Name of Target Chain>
Cyclin-dependent kinase 2

> <UniProt (SwissProt) Entry Name of Target Chain>
CDK2_HUMAN

> <UniProt (SwissProt) Primary ID of Target Chain>
P24941

> <UniProt (SwissProt) Secondary ID(s) of Target Chain>
A8K7C6,O75100

> <UniProt (SwissProt) Alternative ID(s) of Target Chain>


> <UniProt (TrEMBL) Submitted Name of Target Chain>


> <UniProt (TrEMBL) Entry Name of Target Chain>


> <UniProt (TrEMBL) Primary ID of Target Chain>
A0A024RB77

> <UniProt (TrEMBL) Secondary ID(s) of Target Chain>


> <UniProt (TrEMBL) Alternative ID(s) of Target Chain>


$$$$
ttt_mol_1

Vconf v2.1
 36 38  0  0  0  0  0  0  0  0999 V2000
    1.4960    3.0440    0.9670 N   0  0  0  0  0  0  0  0  0  0  0
    1.2840    1.9370    0.2170 C   0  0  0  0  0  0  0  0  0  0  0
    1.9900    0.8250    0.6900 C   0  0  0  0  0  0  0  0  0  0  0
    2.9260    1.1910    2.1040 S   0  0  0  0  0  0  0  0  0  0  0
    2.3380    2.8110    1.9940 C   0  0  0  0  0  0  0  0  0  0  0
    0.3940    1.9190   -0.9570 C   0  0  0  0  0  0  0  0  0  0  0
    2.6830    3.6830    2.8220 O   0  0  0  0  0  0  0  0  0  0  0
    2.0040   -0.4770    0.1400 C   0  0  0  0  0  0  0  0  0  0  0
    2.7650   -1.4960    0.7430 C   0  0  0  0  0  0  0  0  0  0  0
    2.7570   -2.7680    0.1560 C   0  0  0  0  0  0  0  0  0  0  0
    2.0320   -2.9920   -0.9640 N   0  0  0  0  0  0  0  0  0  0  0
    1.2980   -2.0160   -1.5450 C   0  0  0  0  0  0  0  0  0  0  0
    1.3000   -0.7810   -0.9810 N   0  0  0  0  0  0  0  0  0  0  0
    0.6140   -2.3220   -2.6740 N   0  0  0  0  0  0  0  0  0  0  0
   -0.1550   -1.4650   -3.3900 C   0  0  0  0  0  0  0  0  0  0  0
   -0.7460   -0.5370   -5.5670 C   0  0  0  0  0  0  0  0  0  0  0
    0.0330   -1.4030   -4.7830 C   0  0  0  0  0  0  0  0  0  0  0
   -1.1580   -0.6720   -2.7920 C   0  0  0  0  0  0  0  0  0  0  0
   -1.9380    0.2050   -3.5730 C   0  0  0  0  0  0  0  0  0  0  0
   -1.7270    0.2700   -4.9650 C   0  0  0  0  0  0  0  0  0  0  0
    0.8990    4.3150    0.7120 C   0  0  0  0  0  0  0  0  0  0  0
   -2.8440    0.9500   -3.0110 C   0  0  0  0  0  0  0  0  0  0  0
   -3.6410    1.6090   -2.5140 N   0  0  0  0  0  0  0  0  0  0  0
   -0.4200    1.2170   -0.7790 H   0  0  0  0  0  0  0  0  0  0  0
   -0.0370    2.9010   -1.1460 H   0  0  0  0  0  0  0  0  0  0  0
    0.9530    1.6130   -1.8420 H   0  0  0  0  0  0  0  0  0  0  0
    3.3160   -1.3300    1.5870 H   0  0  0  0  0  0  0  0  0  0  0
    3.2990   -3.5260    0.5710 H   0  0  0  0  0  0  0  0  0  0  0
    0.7280   -3.2180   -3.0260 H   0  0  0  0  0  0  0  0  0  0  0
   -0.5990   -0.4910   -6.5760 H   0  0  0  0  0  0  0  0  0  0  0
    0.7450   -1.9830   -5.2300 H   0  0  0  0  0  0  0  0  0  0  0
   -1.3100   -0.7380   -1.7830 H   0  0  0  0  0  0  0  0  0  0  0
   -2.2820    0.8980   -5.5500 H   0  0  0  0  0  0  0  0  0  0  0
    1.2070    5.0610    1.4470 H   0  0  0  0  0  0  0  0  0  0  0
    1.1940    4.6670   -0.2780 H   0  0  0  0  0  0  0  0  0  0  0
   -0.1880    4.2250    0.7500 H   0  0  0  0  0  0  0  0  0  0  0
  1  2  1  0  0  0  0
  1  5  1  0  0  0  0
  1 21  1  0  0  0  0
  2  3  2  0  0  0  0
  2  6  1  0  0  0  0
  3  4  1  0  0  0  0
  3  8  1  0  0  0  0
  4  5  1  0  0  0  0
  5  7  2  0  0  0  0
  6 24  1  0  0  0  0
  6 25  1  0  0  0  0
  6 26  1  0  0  0  0
  8  9  2  0  0  0  0
  8 13  1  0  0  0  0
  9 10  1  0  0  0  0
  9 27  1  0  0  0  0
 10 11  2  0  0  0  0
 10 28  1  0  0  0  0
 11 12  1  0  0  0  0
 12 13  2  0  0  0  0
 12 14  1  0  0  0  0
 14 15  1  0  0  0  0
 14 29  1  0  0  0  0
 15 17  2  0  0  0  0
 15 18  1  0  0  0  0
 16 17  1  0  0  0  0
 16 20  2  0  0  0  0
 16 30  1  0  0  0  0
 17 31  1  0  0  0  0
 18 19  2  0  0  0  0
 18 32  1  0  0  0  0
 19 20  1  0  0  0  0
 19 22  1  0  0  0  0
 20 33  1  0  0  0  0
 21 34  1  0  0  0  0
 21 35  1  0  0  0  0
 21 36  1  0  0  0  0
 22 23  3  0  0  0  0
M  END
> <From>
www.bindingDB.org

> <BindingDB Reactant_set_id>
153789

> <Ligand InChI>
InChI=1S/C16H13N5OS/c1-10-14(23-16(22)21(10)2)13-6-7-18-15(20-13)19-12-5-3-4-11(8-12)9-17/h3-8H,1-2H3,(H,18,19,20)

> <Ligand InChI Key>
ITSPBRBMIPVDCF-UHFFFAOYSA-N

> <BindingDB MonomerID>
81439

> <BindingDB Ligand Name>
CDK Inhibitor, 12

> <Target Name Assigned by Curator or DataSource>
Cyclin-dependent kinase 2

> <Target Source Organism According to Curator or DataSource>
Homo sapiens

> <Ki (nM)>
 0.52

> <IC50 (nM)>


> <Kd (nM)>


> <EC50 (nM)>


> <kon (M-1-s-1)>


> <koff (s-1)>


> <pH>


> <Temp C>


> <Curation/DataSource>
Curated from the literature by BindingDB

> <Article DOI>
10.1016/j.chembiol.2010.07.016

> <PMID>
21035734

> <PubChem AID>


> <Patent Number>


> <Authors>
Wang, S; Griffiths, G; Midgley, CA; Barnett, AL; Cooper, M; Grabarek, J; Ingram, L; Jackson, W; Kontopidis, G; McClue, SJ; McInnes, C; McLachlan, J; Meades, C; Mezna, M; Stuart, I; Thomas, MP; Zheleva, DI; Lane, DP; Jackson, RC; Glover, DM; Blake, DG; Fischer, PM

> <Institution>
Cyclacel Limited

> <Link to Ligand in BindingDB>
http://www.bindingdb.org/bind/chemsearch/marvin/MolStructure.jsp?monomerid=81439

> <Link to Ligand-Target Pair in BindingDB>
http://www.bindingdb.org/jsp/dbsearch/PrimarySearch_ki.jsp?energyterm=kJ/mole&tag=pol&polymerid=796&target=Cyclin-dependent+kinase+2&column=ki&startPg=0&Increment=50&submit=Search

> <Link to Ligand-Target Pair in BindingDB>
http://www.bindingdb.org/jsp/dbsearch/PrimarySearch_ki.jsp?energyterm=kJ/mole&tag=r21&monomerid=81439&enzyme=Cyclin-dependent+kinase+2&column=ki&startPg=0&Increment=50&submit=Search

> <Ligand HET ID in PDB>


> <PDB ID(s) for Ligand-Target Complex>


> <PubChem CID>
11244207

> <PubChem SID>
131342013

> <ChEBI ID of Ligand>


> <ChEMBL ID of Ligand>


> <DrugBank ID of Ligand>


> <IUPHAR_GRAC ID of Ligand>


> <KEGG ID of Ligand>


> <ZINC ID of Ligand>
ZINC70463262

> <Number of Protein Chains in Target (bigger than 1 implies a multichain complex)>
1

> <BindingDB Target Chain Sequence>
MENFQKVEKIGEGTYGVVYKARNKLTGEVVALKKIRLDTETEGVPSTAIREISLLKELNHPNIVKLLDVIHTENKLYLVFEFLHQDLKKFMDASALTGIPLPLIKSYLFQLLQGLAFCHSHRVLHRDLKPQNLLINTEGAIKLADFGLARAFGVPVRTYTHEVVTLWYRAPEILLGCKYYSTAVDIWSLGCIFAEMVTRRALFPGDSEIDQLFRIFRTLGTPDEVVWPGVTSMPDYKPSFPKWARQDFSKVVPPLDEDGRSLLSQMLHYDPNKRISAKAALAHPFFQDVTKPVPHLRL

> <PDB ID(s) of Target Chain>
1CKP,1DI8,1DM2,1E1V,1E1X,1E9H,1F5Q,1FIN,1FQ1,1FVT,1FVV,1G5S,1GIH,1GY3,1GZ8,1H00,1H01,1H07,1H08,1H0V,1H0W,1H1P,1H1Q,1H1R,1H1S,1H24,1H25,1H26,1H27,1H28,1HCK,1HCL,1JST,1JSU,1JSV,1JVP,1KE5,1KE6,1KE7,1KE8,1KE9,1OGU,1OI9,1OIQ,1OIR,1OIU,1OIY,1OKV,1OKW,1OL1,1OL2,1P2A,1P5E,1PF8,1PKD,1PW2,1PXI,1PXJ,1PXK,1PXL,1PXM,1PXN,1PXO,1PXP,1PYE,1QMZ,1R78,1URC,1URW,1V1K,1VYW,1VYZ,1W0X,1W8C,1W98,1WCC,1Y8Y,1Y91,1YKR,2A0C,2A4L,2B52,2B53,2B54,2B55,2BHE,2BHH,2BKZ,2BPM,2BTR,2BTS,2C4G,2C5N,2C5O,2C5V,2C5X,2C5Y,2C68,2C69,2C6I,2C6K,2C6L,2C6M,2C6O,2C6T,2CCH,2CCI,2CJM,2CLX,2DUV,2EXM,2FVD,2G9X,2I40,2J9M,2JGZ,2R3F,2R3G,2R3H,2R3I,2R3J,2R3K,2R3L,2R3M,2R3N,2R3O,2R3P,2R3Q,2R3R,2R64,2UUE,2UZB,2UZD,2UZE,2UZL,2UZN,2UZO,2V0D,2V22,2VTA,2VTH,2VTI,2VTJ,2VTL,2VTM,2VTN,2VTO,2VTP,2VTQ,2VTR,2VTS,2VTT,2VU3,2VV9,2W05,2W06,2W17,2W1H,2WEV,2WFY,2WHB,2WIH,2WIP,2WMA,2WMB,2WPA,2WXV,2X1N,2XMY,2XNB,3BHT,3BHU,3BHV,3DDP,3DDQ,3DOG,3EID,3EJ1,3EOC,3EZR,3EZV,3F5X,3FZ1,3IG7,3IGG,3LE6,3LFN,3LFQ,3LFS,3MY5,3NS9,3PJ8,3PXF,3PXQ,3PXR,3PXY,3PXZ,3PY0,3PY1,3QHR,3QHW,3QL8,3QQF,3QQG,3QQH,3QQJ,3QQK,3QQL,3QRT,3QRU,3QTQ,3QTR,3QTS,3QTU,3QTW,3QTX,3QTZ,3QU0,3QWJ,3QWK,3QX2,3QX4,3QXO,3QXP,3QZF,3QZG,3QZH,3QZI,3R1Q,3R1S,3R1Y,3R28,3R6X,3R71,3R73,3R7E,3R7I,3R7U,3R7V,3R7Y,3R83,3R8L,3R8M,3R8P,3R8U,3R8V,3R8Z,3R9D,3R9H,3R9N,3R9O,3RAH,3RAI,3RAK,3RAL,3RJC,3RK5,3RK7,3RK9,3RKB,3RM6,3RM7,3RMF,3RNI,3ROY,3RPO,3RPR,3RPV,3RPY,3RZB,3S00,3S0O,3S1H,3S2P,3SQQ,3SW4,3SW7,3TI1,3TIY,3TIZ,3TNW,3ULI,3UNJ,3UNK,3WBL,4ACM,4BCK,4BCM,4BCN,4BCO,4BCP,4BCQ,4BGH,4BZD,4CFM,4CFN,4CFU,4CFV,4CFW,4CFX,4D1X,4D1Z,4EK3,4EK4,4EK5,4EK6,4EK8,4EOQ,4EOR,4EOS,4ERW,4EZ3,4EZ7,4FKG,4FKI,4FKJ,4FKL,4FKO,4FKP,4FKQ,4FKR,4FKS,4FKT,4FKU,4FKV,4FKW,4FX3,4GCJ,4I3Z,4II5,4KD1,4LYN,4NJ3,4RJ3,5A14,5AND,5ANE,5ANG,5ANI,5ANJ,5ANK,5ANO,5CYI,5D1J,5FP5,5FP6,5IEV,5IEX,5IEY,5IF1,5JQ5,5JQ8,5K4J,5L2W,5LMK,5MHQ,5NEV,5OO0,5OSJ,5UQ1,5UQ2,5UQ3,6ATH,6GUB,6GUC,6GUE,6GUF,6GUH,6GUK,6GVA,6INL,6JGM,6OQI,6P3W,6Q3B,6Q3C,6Q3F,6Q48,6Q49,6Q4A,6Q4B,6Q4C,6Q4D,6Q4E,6Q4F,6Q4H,6Q4J,6Q4K,6RIJ,6SG4,7ACK,7B5L,7B5R,7B7S,7E34,7KJS,7M2F,7NVQ

> <UniProt (SwissProt) Recommended Name of Target Chain>
Cyclin-dependent kinase 2

> <UniProt (SwissProt) Entry Name of Target Chain>
CDK2_HUMAN

> <UniProt (SwissProt) Primary ID of Target Chain>
P24941

> <UniProt (SwissProt) Secondary ID(s) of Target Chain>
A8K7C6,O75100

> <UniProt (SwissProt) Alternative ID(s) of Target Chain>


> <UniProt (TrEMBL) Submitted Name of Target Chain>


> <UniProt (TrEMBL) Entry Name of Target Chain>


> <UniProt (TrEMBL) Primary ID of Target Chain>
A0A024RB77

> <UniProt (TrEMBL) Secondary ID(s) of Target Chain>


> <UniProt (TrEMBL) Alternative ID(s) of Target Chain>


$$$$
2-Anilino-4-_thiazol-5-yl_pyrimidine

Vconf v2.0 Academic SN VC001-00000579
 35 37  0  0  0  0  0  0  0  0999 V2000
   -0.3460    4.8090    0.9020 C   0  0  0  0  0  0  0  0  0  0  0
   -2.5630    4.7900    0.7400 C   0  0  0  0  0  0  0  0  0  0  0
   -2.2780    3.4260    0.5940 C   0  0  0  0  0  0  0  0  0  0  0
   -1.4660    5.5400    0.9080 N   0  0  0  0  0  0  0  0  0  0  0
   -3.8940    5.4060    0.7320 C   0  0  0  0  0  0  0  0  0  0  0
   -0.5770    3.1080    0.6880 S   0  0  0  0  0  0  0  0  0  0  0
   -3.2060    2.3830    0.3830 C   0  0  0  0  0  0  0  0  0  0  0
   -2.7660    1.0520    0.2620 C   0  0  0  0  0  0  0  0  0  0  0
   -3.7250    0.0560    0.0390 C   0  0  0  0  0  0  0  0  0  0  0
   -5.4590    1.6620    0.0610 C   0  0  0  0  0  0  0  0  0  0  0
   -4.5370    2.6350    0.2780 N   0  0  0  0  0  0  0  0  0  0  0
   -5.0340    0.3840   -0.0570 N   0  0  0  0  0  0  0  0  0  0  0
   -6.7860    1.9030   -0.0660 N   0  0  0  0  0  0  0  0  0  0  0
   -7.3830    3.1180    0.0050 C   0  0  0  0  0  0  0  0  0  0  0
   -8.9780    4.6980   -0.9420 C   0  0  0  0  0  0  0  0  0  0  0
   -8.3260    3.4560   -0.9820 C   0  0  0  0  0  0  0  0  0  0  0
   -7.1290    4.0270    1.0520 C   0  0  0  0  0  0  0  0  0  0  0
   -7.7690    5.2860    1.1080 C   0  0  0  0  0  0  0  0  0  0  0
   -8.6980    5.6060    0.0920 C   0  0  0  0  0  0  0  0  0  0  0
   -7.4960    6.1690    2.1160 N   0  3  0  0  0  0  0  0  0  0  0
   -8.1010    7.2050    2.2350 O   0  5  0  0  0  0  0  0  0  0  0
   -6.6340    5.9600    2.9280 O   0  0  0  0  0  0  0  0  0  0  0
    0.8630    5.3590    1.0550 N   0  0  0  0  0  0  0  0  0  0  0
   -3.8050    6.4860    0.8500 H   0  0  0  0  0  0  0  0  0  0  0
   -4.4000    5.1940   -0.2100 H   0  0  0  0  0  0  0  0  0  0  0
   -4.4800    5.0100    1.5610 H   0  0  0  0  0  0  0  0  0  0  0
   -1.7790    0.8030    0.3310 H   0  0  0  0  0  0  0  0  0  0  0
   -3.4360   -0.9190   -0.0540 H   0  0  0  0  0  0  0  0  0  0  0
   -7.3480    1.1430   -0.2790 H   0  0  0  0  0  0  0  0  0  0  0
   -9.6560    4.9420   -1.6660 H   0  0  0  0  0  0  0  0  0  0  0
   -8.5350    2.8010   -1.7370 H   0  0  0  0  0  0  0  0  0  0  0
   -6.4650    3.7710    1.7840 H   0  0  0  0  0  0  0  0  0  0  0
   -9.1770    6.5070    0.1050 H   0  0  0  0  0  0  0  0  0  0  0
    1.6560    4.8010    1.0480 H   0  0  0  0  0  0  0  0  0  0  0
    0.9440    6.3180    1.1740 H   0  0  0  0  0  0  0  0  0  0  0
  1  4  2  0  0  0  0
  1  6  1  0  0  0  0
  1 23  1  0  0  0  0
  2  3  2  0  0  0  0
  2  4  1  0  0  0  0
  2  5  1  0  0  0  0
  3  6  1  0  0  0  0
  3  7  1  0  0  0  0
  5 24  1  0  0  0  0
  5 25  1  0  0  0  0
  5 26  1  0  0  0  0
  7  8  2  0  0  0  0
  7 11  1  0  0  0  0
  8  9  1  0  0  0  0
  8 27  1  0  0  0  0
  9 12  2  0  0  0  0
  9 28  1  0  0  0  0
 10 11  2  0  0  0  0
 10 12  1  0  0  0  0
 10 13  1  0  0  0  0
 13 14  1  0  0  0  0
 13 29  1  0  0  0  0
 14 16  2  0  0  0  0
 14 17  1  0  0  0  0
 15 16  1  0  0  0  0
 15 19  2  0  0  0  0
 15 30  1  0  0  0  0
 16 31  1  0  0  0  0
 17 18  2  0  0  0  0
 17 32  1  0  0  0  0
 18 19  1  0  0  0  0
 18 20  1  0  0  0  0
 19 33  1  0  0  0  0
 20 21  1  0  0  0  0
 20 22  2  0  0  0  0
 23 34  1  0  0  0  0
 23 35  1  0  0  0  0
M  END
> <From>
www.bindingDB.org

> <BindingDB Reactant_set_id>
153778

> <Ligand InChI>
InChI=1S/C14H12N6O2S/c1-8-12(23-13(15)17-8)11-5-6-16-14(19-11)18-9-3-2-4-10(7-9)20(21)22/h2-7H,1H3,(H2,15,17)(H,16,18,19)

> <Ligand InChI Key>
DYTKVFHLKPDNRW-UHFFFAOYSA-N

> <BindingDB MonomerID>
8061

> <BindingDB Ligand Name>
2-Anilino-4-(thiazol-5-yl)pyrimidine deriv. 32::4-(2-amino-4-methyl-1,3-thiazol-5-yl)-N-(3-nitrophenyl)pyrimidin-2-amine, 4::4-methyl-5-{2-[(3-nitrophenyl)amino]pyrimidin-4-yl}-1,3-thiazol-2-amine::CDK Inhibitor, 1::[4-(2-Amino-4-methylthiazol-5-yl)pyrimidin-2-yl](3-nitrophenyl)amine

> <Target Name Assigned by Curator or DataSource>
Cyclin-dependent kinase 2

> <Target Source Organism According to Curator or DataSource>
Homo sapiens

> <Ki (nM)>
<1

> <IC50 (nM)>


> <Kd (nM)>


> <EC50 (nM)>


> <kon (M-1-s-1)>


> <koff (s-1)>


> <pH>


> <Temp C>


> <Curation/DataSource>
Curated from the literature by BindingDB

> <Article DOI>
10.1016/j.chembiol.2010.07.016

> <PMID>
21035734

> <PubChem AID>


> <Patent Number>


> <Authors>
Wang, S; Griffiths, G; Midgley, CA; Barnett, AL; Cooper, M; Grabarek, J; Ingram, L; Jackson, W; Kontopidis, G; McClue, SJ; McInnes, C; McLachlan, J; Meades, C; Mezna, M; Stuart, I; Thomas, MP; Zheleva, DI; Lane, DP; Jackson, RC; Glover, DM; Blake, DG; Fischer, PM

> <Institution>
Cyclacel Limited

> <Link to Ligand in BindingDB>
http://www.bindingdb.org/bind/chemsearch/marvin/MolStructure.jsp?monomerid=8061

> <Link to Ligand-Target Pair in BindingDB>
http://www.bindingdb.org/jsp/dbsearch/PrimarySearch_ki.jsp?energyterm=kJ/mole&tag=pol&polymerid=796&target=Cyclin-dependent+kinase+2&column=ki&startPg=0&Increment=50&submit=Search

> <Link to Ligand-Target Pair in BindingDB>
http://www.bindingdb.org/jsp/dbsearch/PrimarySearch_ki.jsp?energyterm=kJ/mole&tag=r21&monomerid=8061&enzyme=Cyclin-dependent+kinase+2&column=ki&startPg=0&Increment=50&submit=Search

> <Ligand HET ID in PDB>


> <PDB ID(s) for Ligand-Target Complex>
1PXO,2WEV

> <PubChem CID>
447961

> <PubChem SID>
11108815

> <ChEBI ID of Ligand>


> <ChEMBL ID of Ligand>


> <DrugBank ID of Ligand>


> <IUPHAR_GRAC ID of Ligand>


> <KEGG ID of Ligand>
C06058

> <ZINC ID of Ligand>
ZINC02047389

> <Number of Protein Chains in Target (bigger than 1 implies a multichain complex)>
1

> <BindingDB Target Chain Sequence>
MENFQKVEKIGEGTYGVVYKARNKLTGEVVALKKIRLDTETEGVPSTAIREISLLKELNHPNIVKLLDVIHTENKLYLVFEFLHQDLKKFMDASALTGIPLPLIKSYLFQLLQGLAFCHSHRVLHRDLKPQNLLINTEGAIKLADFGLARAFGVPVRTYTHEVVTLWYRAPEILLGCKYYSTAVDIWSLGCIFAEMVTRRALFPGDSEIDQLFRIFRTLGTPDEVVWPGVTSMPDYKPSFPKWARQDFSKVVPPLDEDGRSLLSQMLHYDPNKRISAKAALAHPFFQDVTKPVPHLRL

> <PDB ID(s) of Target Chain>
1CKP,1DI8,1DM2,1E1V,1E1X,1E9H,1F5Q,1FIN,1FQ1,1FVT,1FVV,1G5S,1GIH,1GY3,1GZ8,1H00,1H01,1H07,1H08,1H0V,1H0W,1H1P,1H1Q,1H1R,1H1S,1H24,1H25,1H26,1H27,1H28,1HCK,1HCL,1JST,1JSU,1JSV,1JVP,1KE5,1KE6,1KE7,1KE8,1KE9,1OGU,1OI9,1OIQ,1OIR,1OIU,1OIY,1OKV,1OKW,1OL1,1OL2,1P2A,1P5E,1PF8,1PKD,1PW2,1PXI,1PXJ,1PXK,1PXL,1PXM,1PXN,1PXO,1PXP,1PYE,1QMZ,1R78,1URC,1URW,1V1K,1VYW,1VYZ,1W0X,1W8C,1W98,1WCC,1Y8Y,1Y91,1YKR,2A0C,2A4L,2B52,2B53,2B54,2B55,2BHE,2BHH,2BKZ,2BPM,2BTR,2BTS,2C4G,2C5N,2C5O,2C5V,2C5X,2C5Y,2C68,2C69,2C6I,2C6K,2C6L,2C6M,2C6O,2C6T,2CCH,2CCI,2CJM,2CLX,2DUV,2EXM,2FVD,2G9X,2I40,2J9M,2JGZ,2R3F,2R3G,2R3H,2R3I,2R3J,2R3K,2R3L,2R3M,2R3N,2R3O,2R3P,2R3Q,2R3R,2R64,2UUE,2UZB,2UZD,2UZE,2UZL,2UZN,2UZO,2V0D,2V22,2VTA,2VTH,2VTI,2VTJ,2VTL,2VTM,2VTN,2VTO,2VTP,2VTQ,2VTR,2VTS,2VTT,2VU3,2VV9,2W05,2W06,2W17,2W1H,2WEV,2WFY,2WHB,2WIH,2WIP,2WMA,2WMB,2WPA,2WXV,2X1N,2XMY,2XNB,3BHT,3BHU,3BHV,3DDP,3DDQ,3DOG,3EID,3EJ1,3EOC,3EZR,3EZV,3F5X,3FZ1,3IG7,3IGG,3LE6,3LFN,3LFQ,3LFS,3MY5,3NS9,3PJ8,3PXF,3PXQ,3PXR,3PXY,3PXZ,3PY0,3PY1,3QHR,3QHW,3QL8,3QQF,3QQG,3QQH,3QQJ,3QQK,3QQL,3QRT,3QRU,3QTQ,3QTR,3QTS,3QTU,3QTW,3QTX,3QTZ,3QU0,3QWJ,3QWK,3QX2,3QX4,3QXO,3QXP,3QZF,3QZG,3QZH,3QZI,3R1Q,3R1S,3R1Y,3R28,3R6X,3R71,3R73,3R7E,3R7I,3R7U,3R7V,3R7Y,3R83,3R8L,3R8M,3R8P,3R8U,3R8V,3R8Z,3R9D,3R9H,3R9N,3R9O,3RAH,3RAI,3RAK,3RAL,3RJC,3RK5,3RK7,3RK9,3RKB,3RM6,3RM7,3RMF,3RNI,3ROY,3RPO,3RPR,3RPV,3RPY,3RZB,3S00,3S0O,3S1H,3S2P,3SQQ,3SW4,3SW7,3TI1,3TIY,3TIZ,3TNW,3ULI,3UNJ,3UNK,3WBL,4ACM,4BCK,4BCM,4BCN,4BCO,4BCP,4BCQ,4BGH,4BZD,4CFM,4CFN,4CFU,4CFV,4CFW,4CFX,4D1X,4D1Z,4EK3,4EK4,4EK5,4EK6,4EK8,4EOQ,4EOR,4EOS,4ERW,4EZ3,4EZ7,4FKG,4FKI,4FKJ,4FKL,4FKO,4FKP,4FKQ,4FKR,4FKS,4FKT,4FKU,4FKV,4FKW,4FX3,4GCJ,4I3Z,4II5,4KD1,4LYN,4NJ3,4RJ3,5A14,5AND,5ANE,5ANG,5ANI,5ANJ,5ANK,5ANO,5CYI,5D1J,5FP5,5FP6,5IEV,5IEX,5IEY,5IF1,5JQ5,5JQ8,5K4J,5L2W,5LMK,5MHQ,5NEV,5OO0,5OSJ,5UQ1,5UQ2,5UQ3,6ATH,6GUB,6GUC,6GUE,6GUF,6GUH,6GUK,6GVA,6INL,6JGM,6OQI,6P3W,6Q3B,6Q3C,6Q3F,6Q48,6Q49,6Q4A,6Q4B,6Q4C,6Q4D,6Q4E,6Q4F,6Q4H,6Q4J,6Q4K,6RIJ,6SG4,7ACK,7B5L,7B5R,7B7S,7E34,7KJS,7M2F,7NVQ

> <UniProt (SwissProt) Recommended Name of Target Chain>
Cyclin-dependent kinase 2

> <UniProt (SwissProt) Entry Name of Target Chain>
CDK2_HUMAN

> <UniProt (SwissProt) Primary ID of Target Chain>
P24941

> <UniProt (SwissProt) Secondary ID(s) of Target Chain>
A8K7C6,O75100

> <UniProt (SwissProt) Alternative ID(s) of Target Chain>


> <UniProt (TrEMBL) Submitted Name of Target Chain>


> <UniProt (TrEMBL) Entry Name of Target Chain>


> <UniProt (TrEMBL) Primary ID of Target Chain>
A0A024RB77

> <UniProt (TrEMBL) Secondary ID(s) of Target Chain>


> <UniProt (TrEMBL) Alternative ID(s) of Target Chain>


$$$$
ttt_mol_1

Vconf v2.1
 42 44  0  0  0  0  0  0  0  0999 V2000
    1.9840    4.2270    0.0360 N   0  0  0  0  0  0  0  0  0  0  0
    1.7500    2.9250   -0.1730 C   0  0  0  0  0  0  0  0  0  0  0
    2.8650    2.1200    0.0900 C   0  0  0  0  0  0  0  0  0  0  0
    4.2310    3.0560    0.6040 S   0  0  0  0  0  0  0  0  0  0  0
    3.2360    4.4630    0.4420 C   0  0  0  0  0  0  0  0  0  0  0
    0.4320    2.4700   -0.6310 C   0  0  0  0  0  0  0  0  0  0  0
    3.6670    5.7100    0.6990 N   0  0  0  0  0  0  0  0  0  0  0
    2.9340    0.7140   -0.0050 C   0  0  0  0  0  0  0  0  0  0  0
    4.1070    0.0250    0.3540 C   0  0  0  0  0  0  0  0  0  0  0
    4.1060   -1.3730    0.2670 C   0  0  0  0  0  0  0  0  0  0  0
    3.0000   -2.0260   -0.1600 N   0  0  0  0  0  0  0  0  0  0  0
    1.8760   -1.3640   -0.5170 C   0  0  0  0  0  0  0  0  0  0  0
    1.8660   -0.0090   -0.4290 N   0  0  0  0  0  0  0  0  0  0  0
    0.8140   -2.0890   -0.9340 N   0  0  0  0  0  0  0  0  0  0  0
   -0.3630   -1.5800   -1.3700 C   0  0  0  0  0  0  0  0  0  0  0
   -2.8010   -1.6000   -1.2760 C   0  0  0  0  0  0  0  0  0  0  0
   -1.5600   -2.0800   -0.8240 C   0  0  0  0  0  0  0  0  0  0  0
   -0.4230   -0.6060   -2.3900 C   0  0  0  0  0  0  0  0  0  0  0
   -1.6640   -0.1240   -2.8480 C   0  0  0  0  0  0  0  0  0  0  0
   -2.8520   -0.6260   -2.2870 C   0  0  0  0  0  0  0  0  0  0  0
   -1.7380    1.0750   -4.1020 S   0  0  0  0  0  0  0  0  0  0  0
   -0.2730    1.4840   -4.5670 O   0  0  0  0  0  0  0  0  0  0  0
   -2.8990    0.6510   -5.1020 O   0  0  0  0  0  0  0  0  0  0  0
   -2.3850    2.5600   -3.3170 C   0  0  0  0  0  0  0  0  0  0  0
    4.9910    5.9780    1.1220 C   0  0  0  0  0  0  0  0  0  0  0
    0.0210    1.7450    0.0730 H   0  0  0  0  0  0  0  0  0  0  0
   -0.2500    3.3180   -0.6980 H   0  0  0  0  0  0  0  0  0  0  0
    0.5250    2.0120   -1.6160 H   0  0  0  0  0  0  0  0  0  0  0
    3.0480    6.4490    0.5850 H   0  0  0  0  0  0  0  0  0  0  0
    4.9410    0.5150    0.6810 H   0  0  0  0  0  0  0  0  0  0  0
    4.9390   -1.9020    0.5260 H   0  0  0  0  0  0  0  0  0  0  0
    0.8960   -3.0540   -0.8910 H   0  0  0  0  0  0  0  0  0  0  0
   -3.6660   -1.9620   -0.8730 H   0  0  0  0  0  0  0  0  0  0  0
   -1.5300   -2.7930   -0.0940 H   0  0  0  0  0  0  0  0  0  0  0
    0.4390   -0.2490   -2.8050 H   0  0  0  0  0  0  0  0  0  0  0
   -3.7540   -0.2840   -2.6200 H   0  0  0  0  0  0  0  0  0  0  0
   -2.5020    3.3390   -4.0690 H   0  0  0  0  0  0  0  0  0  0  0
   -3.3540    2.3460   -2.8640 H   0  0  0  0  0  0  0  0  0  0  0
   -1.6900    2.8990   -2.5510 H   0  0  0  0  0  0  0  0  0  0  0
    5.1030    7.0510    1.2780 H   0  0  0  0  0  0  0  0  0  0  0
    5.2010    5.4600    2.0590 H   0  0  0  0  0  0  0  0  0  0  0
    5.7000    5.6540    0.3580 H   0  0  0  0  0  0  0  0  0  0  0
  1  2  1  0  0  0  0
  1  5  2  0  0  0  0
  2  3  2  0  0  0  0
  2  6  1  0  0  0  0
  3  4  1  0  0  0  0
  3  8  1  0  0  0  0
  4  5  1  0  0  0  0
  5  7  1  0  0  0  0
  6 26  1  0  0  0  0
  6 27  1  0  0  0  0
  6 28  1  0  0  0  0
  7 25  1  0  0  0  0
  7 29  1  0  0  0  0
  8  9  2  0  0  0  0
  8 13  1  0  0  0  0
  9 10  1  0  0  0  0
  9 30  1  0  0  0  0
 10 11  2  0  0  0  0
 10 31  1  0  0  0  0
 11 12  1  0  0  0  0
 12 13  2  0  0  0  0
 12 14  1  0  0  0  0
 14 15  1  0  0  0  0
 14 32  1  0  0  0  0
 15 17  2  0  0  0  0
 15 18  1  0  0  0  0
 16 17  1  0  0  0  0
 16 20  2  0  0  0  0
 16 33  1  0  0  0  0
 17 34  1  0  0  0  0
 18 19  2  0  0  0  0
 18 35  1  0  0  0  0
 19 20  1  0  0  0  0
 19 21  1  0  0  0  0
 20 36  1  0  0  0  0
 21 22  2  0  0  0  0
 21 23  2  0  0  0  0
 21 24  1  0  0  0  0
 24 37  1  0  0  0  0
 24 38  1  0  0  0  0
 24 39  1  0  0  0  0
 25 40  1  0  0  0  0
 25 41  1  0  0  0  0
 25 42  1  0  0  0  0
M  END
> <From>
www.bindingDB.org

> <BindingDB Reactant_set_id>
153783

> <Ligand InChI>
InChI=1S/C16H17N5O2S2/c1-10-14(24-16(17-2)19-10)13-7-8-18-15(21-13)20-11-5-4-6-12(9-11)25(3,22)23/h4-9H,1-3H3,(H,17,19)(H,18,20,21)

> <Ligand InChI Key>
BFQBIVCJNIEQPK-UHFFFAOYSA-N

> <BindingDB MonomerID>
81433

> <BindingDB Ligand Name>
CDK Inhibitor, 6

> <Target Name Assigned by Curator or DataSource>
Cyclin-dependent kinase 2

> <Target Source Organism According to Curator or DataSource>
Homo sapiens

> <Ki (nM)>
 1.6

> <IC50 (nM)>


> <Kd (nM)>


> <EC50 (nM)>


> <kon (M-1-s-1)>


> <koff (s-1)>


> <pH>


> <Temp C>


> <Curation/DataSource>
Curated from the literature by BindingDB

> <Article DOI>
10.1016/j.chembiol.2010.07.016

> <PMID>
21035734

> <PubChem AID>


> <Patent Number>


> <Authors>
Wang, S; Griffiths, G; Midgley, CA; Barnett, AL; Cooper, M; Grabarek, J; Ingram, L; Jackson, W; Kontopidis, G; McClue, SJ; McInnes, C; McLachlan, J; Meades, C; Mezna, M; Stuart, I; Thomas, MP; Zheleva, DI; Lane, DP; Jackson, RC; Glover, DM; Blake, DG; Fischer, PM

> <Institution>
Cyclacel Limited

> <Link to Ligand in BindingDB>
http://www.bindingdb.org/bind/chemsearch/marvin/MolStructure.jsp?monomerid=81433

> <Link to Ligand-Target Pair in BindingDB>
http://www.bindingdb.org/jsp/dbsearch/PrimarySearch_ki.jsp?energyterm=kJ/mole&tag=pol&polymerid=796&target=Cyclin-dependent+kinase+2&column=ki&startPg=0&Increment=50&submit=Search

> <Link to Ligand-Target Pair in BindingDB>
http://www.bindingdb.org/jsp/dbsearch/PrimarySearch_ki.jsp?energyterm=kJ/mole&tag=r21&monomerid=81433&enzyme=Cyclin-dependent+kinase+2&column=ki&startPg=0&Increment=50&submit=Search

> <Ligand HET ID in PDB>


> <PDB ID(s) for Ligand-Target Complex>


> <PubChem CID>
11595939

> <PubChem SID>
131342007

> <ChEBI ID of Ligand>


> <ChEMBL ID of Ligand>


> <DrugBank ID of Ligand>


> <IUPHAR_GRAC ID of Ligand>


> <KEGG ID of Ligand>


> <ZINC ID of Ligand>
ZINC35900679

> <Number of Protein Chains in Target (bigger than 1 implies a multichain complex)>
1

> <BindingDB Target Chain Sequence>
MENFQKVEKIGEGTYGVVYKARNKLTGEVVALKKIRLDTETEGVPSTAIREISLLKELNHPNIVKLLDVIHTENKLYLVFEFLHQDLKKFMDASALTGIPLPLIKSYLFQLLQGLAFCHSHRVLHRDLKPQNLLINTEGAIKLADFGLARAFGVPVRTYTHEVVTLWYRAPEILLGCKYYSTAVDIWSLGCIFAEMVTRRALFPGDSEIDQLFRIFRTLGTPDEVVWPGVTSMPDYKPSFPKWARQDFSKVVPPLDEDGRSLLSQMLHYDPNKRISAKAALAHPFFQDVTKPVPHLRL

> <PDB ID(s) of Target Chain>
1CKP,1DI8,1DM2,1E1V,1E1X,1E9H,1F5Q,1FIN,1FQ1,1FVT,1FVV,1G5S,1GIH,1GY3,1GZ8,1H00,1H01,1H07,1H08,1H0V,1H0W,1H1P,1H1Q,1H1R,1H1S,1H24,1H25,1H26,1H27,1H28,1HCK,1HCL,1JST,1JSU,1JSV,1JVP,1KE5,1KE6,1KE7,1KE8,1KE9,1OGU,1OI9,1OIQ,1OIR,1OIU,1OIY,1OKV,1OKW,1OL1,1OL2,1P2A,1P5E,1PF8,1PKD,1PW2,1PXI,1PXJ,1PXK,1PXL,1PXM,1PXN,1PXO,1PXP,1PYE,1QMZ,1R78,1URC,1URW,1V1K,1VYW,1VYZ,1W0X,1W8C,1W98,1WCC,1Y8Y,1Y91,1YKR,2A0C,2A4L,2B52,2B53,2B54,2B55,2BHE,2BHH,2BKZ,2BPM,2BTR,2BTS,2C4G,2C5N,2C5O,2C5V,2C5X,2C5Y,2C68,2C69,2C6I,2C6K,2C6L,2C6M,2C6O,2C6T,2CCH,2CCI,2CJM,2CLX,2DUV,2EXM,2FVD,2G9X,2I40,2J9M,2JGZ,2R3F,2R3G,2R3H,2R3I,2R3J,2R3K,2R3L,2R3M,2R3N,2R3O,2R3P,2R3Q,2R3R,2R64,2UUE,2UZB,2UZD,2UZE,2UZL,2UZN,2UZO,2V0D,2V22,2VTA,2VTH,2VTI,2VTJ,2VTL,2VTM,2VTN,2VTO,2VTP,2VTQ,2VTR,2VTS,2VTT,2VU3,2VV9,2W05,2W06,2W17,2W1H,2WEV,2WFY,2WHB,2WIH,2WIP,2WMA,2WMB,2WPA,2WXV,2X1N,2XMY,2XNB,3BHT,3BHU,3BHV,3DDP,3DDQ,3DOG,3EID,3EJ1,3EOC,3EZR,3EZV,3F5X,3FZ1,3IG7,3IGG,3LE6,3LFN,3LFQ,3LFS,3MY5,3NS9,3PJ8,3PXF,3PXQ,3PXR,3PXY,3PXZ,3PY0,3PY1,3QHR,3QHW,3QL8,3QQF,3QQG,3QQH,3QQJ,3QQK,3QQL,3QRT,3QRU,3QTQ,3QTR,3QTS,3QTU,3QTW,3QTX,3QTZ,3QU0,3QWJ,3QWK,3QX2,3QX4,3QXO,3QXP,3QZF,3QZG,3QZH,3QZI,3R1Q,3R1S,3R1Y,3R28,3R6X,3R71,3R73,3R7E,3R7I,3R7U,3R7V,3R7Y,3R83,3R8L,3R8M,3R8P,3R8U,3R8V,3R8Z,3R9D,3R9H,3R9N,3R9O,3RAH,3RAI,3RAK,3RAL,3RJC,3RK5,3RK7,3RK9,3RKB,3RM6,3RM7,3RMF,3RNI,3ROY,3RPO,3RPR,3RPV,3RPY,3RZB,3S00,3S0O,3S1H,3S2P,3SQQ,3SW4,3SW7,3TI1,3TIY,3TIZ,3TNW,3ULI,3UNJ,3UNK,3WBL,4ACM,4BCK,4BCM,4BCN,4BCO,4BCP,4BCQ,4BGH,4BZD,4CFM,4CFN,4CFU,4CFV,4CFW,4CFX,4D1X,4D1Z,4EK3,4EK4,4EK5,4EK6,4EK8,4EOQ,4EOR,4EOS,4ERW,4EZ3,4EZ7,4FKG,4FKI,4FKJ,4FKL,4FKO,4FKP,4FKQ,4FKR,4FKS,4FKT,4FKU,4FKV,4FKW,4FX3,4GCJ,4I3Z,4II5,4KD1,4LYN,4NJ3,4RJ3,5A14,5AND,5ANE,5ANG,5ANI,5ANJ,5ANK,5ANO,5CYI,5D1J,5FP5,5FP6,5IEV,5IEX,5IEY,5IF1,5JQ5,5JQ8,5K4J,5L2W,5LMK,5MHQ,5NEV,5OO0,5OSJ,5UQ1,5UQ2,5UQ3,6ATH,6GUB,6GUC,6GUE,6GUF,6GUH,6GUK,6GVA,6INL,6JGM,6OQI,6P3W,6Q3B,6Q3C,6Q3F,6Q48,6Q49,6Q4A,6Q4B,6Q4C,6Q4D,6Q4E,6Q4F,6Q4H,6Q4J,6Q4K,6RIJ,6SG4,7ACK,7B5L,7B5R,7B7S,7E34,7KJS,7M2F,7NVQ

> <UniProt (SwissProt) Recommended Name of Target Chain>
Cyclin-dependent kinase 2

> <UniProt (SwissProt) Entry Name of Target Chain>
CDK2_HUMAN

> <UniProt (SwissProt) Primary ID of Target Chain>
P24941

> <UniProt (SwissProt) Secondary ID(s) of Target Chain>
A8K7C6,O75100

> <UniProt (SwissProt) Alternative ID(s) of Target Chain>


> <UniProt (TrEMBL) Submitted Name of Target Chain>


> <UniProt (TrEMBL) Entry Name of Target Chain>


> <UniProt (TrEMBL) Primary ID of Target Chain>
A0A024RB77

> <UniProt (TrEMBL) Secondary ID(s) of Target Chain>


> <UniProt (TrEMBL) Alternative ID(s) of Target Chain>


$$$$
BindingDB_50229973_mol_1

Vconf v2.0 Academic SN VC001-00000579
 35 37  0  0  0  0  0  0  0  0999 V2000
    3.2170    1.4560    0.7210 C   0  0  0  0  0  0  0  0  0  0  0
    2.9680   -0.6550   -0.1200 N   0  0  0  0  0  0  0  0  0  0  0
    4.2950   -0.4940   -0.1610 C   0  0  0  0  0  0  0  0  0  0  0
    2.3400    0.4230    0.3680 C   0  0  0  0  0  0  0  0  0  0  0
   -2.7450    1.6330   -0.4320 N   0  3  0  0  0  0  0  0  0  0  0
    4.8700    1.0340    0.4110 S   0  0  0  0  0  0  0  0  0  0  0
    1.5810    3.0330    1.5390 N   0  0  0  0  0  0  0  0  0  0  0
    1.2110    4.2220    2.0790 C   0  0  0  0  0  0  0  0  0  0  0
    2.8740    2.7090    1.2730 C   0  0  0  0  0  0  0  0  0  0  0
   -2.5390    2.2930    0.7480 C   0  0  0  0  0  0  0  0  0  0  0
   -0.0720    4.5500    2.3650 N   0  0  0  0  0  0  0  0  0  0  0
   -1.3970    3.1030    0.9370 C   0  0  0  0  0  0  0  0  0  0  0
    2.1740    5.1280    2.3660 N   0  0  0  0  0  0  0  0  0  0  0
   -3.7770    1.0540   -0.6660 O   0  5  0  0  0  0  0  0  0  0  0
   -1.9040    1.5890   -1.2910 O   0  0  0  0  0  0  0  0  0  0  0
   -1.1590    3.7660    2.1590 C   0  0  0  0  0  0  0  0  0  0  0
    5.1130   -1.4490   -0.6150 N   0  0  0  0  0  0  0  0  0  0  0
    3.8730    3.6540    1.5700 C   0  0  0  0  0  0  0  0  0  0  0
    3.4820    4.8790    2.1260 C   0  0  0  0  0  0  0  0  0  0  0
    0.8780    0.4490    0.4780 C   0  0  0  0  0  0  0  0  0  0  0
   -3.4620    2.1830    1.8120 C   0  0  0  0  0  0  0  0  0  0  0
   -3.2500    2.8600    3.0240 C   0  0  0  0  0  0  0  0  0  0  0
   -2.1040    3.6510    3.1950 C   0  0  0  0  0  0  0  0  0  0  0
   -0.2160    5.4020    2.8030 H   0  0  0  0  0  0  0  0  0  0  0
   -0.7270    3.2090    0.1750 H   0  0  0  0  0  0  0  0  0  0  0
    6.0710   -1.3010   -0.6340 H   0  0  0  0  0  0  0  0  0  0  0
    4.7440   -2.2900   -0.9280 H   0  0  0  0  0  0  0  0  0  0  0
    4.8610    3.4670    1.3930 H   0  0  0  0  0  0  0  0  0  0  0
    4.1840    5.5840    2.3530 H   0  0  0  0  0  0  0  0  0  0  0
    0.4620   -0.5020    0.1440 H   0  0  0  0  0  0  0  0  0  0  0
    0.5840    0.6190    1.5140 H   0  0  0  0  0  0  0  0  0  0  0
    0.4830    1.2450   -0.1520 H   0  0  0  0  0  0  0  0  0  0  0
   -4.2970    1.6060    1.7050 H   0  0  0  0  0  0  0  0  0  0  0
   -3.9290    2.7740    3.7810 H   0  0  0  0  0  0  0  0  0  0  0
   -1.9560    4.1390    4.0790 H   0  0  0  0  0  0  0  0  0  0  0
  1  4  2  0  0  0  0
  1  6  1  0  0  0  0
  1  9  1  0  0  0  0
  2  3  2  0  0  0  0
  2  4  1  0  0  0  0
  3  6  1  0  0  0  0
  3 17  1  0  0  0  0
  4 20  1  0  0  0  0
  5 10  1  0  0  0  0
  5 14  1  0  0  0  0
  5 15  2  0  0  0  0
  7  8  1  0  0  0  0
  7  9  2  0  0  0  0
  8 11  1  0  0  0  0
  8 13  2  0  0  0  0
  9 18  1  0  0  0  0
 10 12  2  0  0  0  0
 10 21  1  0  0  0  0
 11 16  1  0  0  0  0
 11 24  1  0  0  0  0
 12 16  1  0  0  0  0
 12 25  1  0  0  0  0
 13 19  1  0  0  0  0
 16 23  2  0  0  0  0
 17 26  1  0  0  0  0
 17 27  1  0  0  0  0
 18 19  2  0  0  0  0
 18 28  1  0  0  0  0
 19 29  1  0  0  0  0
 20 30  1  0  0  0  0
 20 31  1  0  0  0  0
 20 32  1  0  0  0  0
 21 22  2  0  0  0  0
 21 33  1  0  0  0  0
 22 23  1  0  0  0  0
 22 34  1  0  0  0  0
 23 35  1  0  0  0  0
M  CHG  1   5   1
M  CHG  1  14  -1
M  END
> <From>
www.bindingDB.org

> <BindingDB Reactant_set_id>
50579853

> <Ligand InChI>
InChI=1S/C14H12N6O2S/c1-8-12(23-13(15)17-8)11-5-6-16-14(19-11)18-9-3-2-4-10(7-9)20(21)22/h2-7H,1H3,(H2,15,17)(H,16,18,19)

> <Ligand InChI Key>
DYTKVFHLKPDNRW-UHFFFAOYSA-N

> <BindingDB MonomerID>
50229973

> <BindingDB Ligand Name>
(4-(2-Amino-4-methylthiazol-5-yl)pyrimidin-2-yl)-(3-nitrophenyl)amine::4-methyl-5-(2-(3-nitrophenylamino)pyrimidin-4-yl)thiazol-2-amine::CHEMBL298445::[4-(2-AMINO-4-METHYL-THIAZOL-5-YL)-PYRIMIDIN-2-YL]-(3-NITRO-PHENYL)-AMINE

> <Target Name Assigned by Curator or DataSource>
Cyclin-dependent kinase 2

> <Target Source Organism According to Curator or DataSource>
Homo sapiens

> <Ki (nM)>
 2

> <IC50 (nM)>


> <Kd (nM)>


> <EC50 (nM)>


> <kon (M-1-s-1)>


> <koff (s-1)>


> <pH>


> <Temp C>


> <Curation/DataSource>
ChEMBL

> <Article DOI>
10.1021/jm901913s

> <PMID>
20462263

> <PubChem AID>


> <Patent Number>


> <Authors>
Wang, S; Midgley, CA; Scaerou, F; Grabarek, JB; Griffiths, G; Jackson, W; Kontopidis, G; McClue, SJ; McInnes, C; Meades, C; Mezna, M; Plater, A; Stuart, I; Thomas, MP; Wood, G; Clarke, RG; Blake, DG; Zheleva, DI; Lane, DP; Jackson, RC; Glover, DM; Fischer, PM

> <Institution>
Cyclacel Ltd

> <Link to Ligand in BindingDB>
http://www.bindingdb.org/bind/chemsearch/marvin/MolStructure.jsp?monomerid=50229973

> <Link to Ligand-Target Pair in BindingDB>
http://www.bindingdb.org/jsp/dbsearch/PrimarySearch_ki.jsp?energyterm=kJ/mole&tag=pol&polymerid=796&target=Cyclin-dependent+kinase+2&column=ki&startPg=0&Increment=50&submit=Search

> <Link to Ligand-Target Pair in BindingDB>
http://www.bindingdb.org/jsp/dbsearch/PrimarySearch_ki.jsp?energyterm=kJ/mole&tag=r21&monomerid=50229973&enzyme=Cyclin-dependent+kinase+2&column=ki&startPg=0&Increment=50&submit=Search

> <Ligand HET ID in PDB>
CK7

> <PDB ID(s) for Ligand-Target Complex>
1PXO,2WEV,4B9D

> <PubChem CID>
447961

> <PubChem SID>
104098225

> <ChEBI ID of Ligand>


> <ChEMBL ID of Ligand>
CHEMBL298445

> <DrugBank ID of Ligand>
DB02833

> <IUPHAR_GRAC ID of Ligand>


> <KEGG ID of Ligand>


> <ZINC ID of Ligand>
ZINC02047389

> <Number of Protein Chains in Target (bigger than 1 implies a multichain complex)>
1

> <BindingDB Target Chain Sequence>
MENFQKVEKIGEGTYGVVYKARNKLTGEVVALKKIRLDTETEGVPSTAIREISLLKELNHPNIVKLLDVIHTENKLYLVFEFLHQDLKKFMDASALTGIPLPLIKSYLFQLLQGLAFCHSHRVLHRDLKPQNLLINTEGAIKLADFGLARAFGVPVRTYTHEVVTLWYRAPEILLGCKYYSTAVDIWSLGCIFAEMVTRRALFPGDSEIDQLFRIFRTLGTPDEVVWPGVTSMPDYKPSFPKWARQDFSKVVPPLDEDGRSLLSQMLHYDPNKRISAKAALAHPFFQDVTKPVPHLRL

> <PDB ID(s) of Target Chain>
1CKP,1DI8,1DM2,1E1V,1E1X,1E9H,1F5Q,1FIN,1FQ1,1FVT,1FVV,1G5S,1GIH,1GY3,1GZ8,1H00,1H01,1H07,1H08,1H0V,1H0W,1H1P,1H1Q,1H1R,1H1S,1H24,1H25,1H26,1H27,1H28,1HCK,1HCL,1JST,1JSU,1JSV,1JVP,1KE5,1KE6,1KE7,1KE8,1KE9,1OGU,1OI9,1OIQ,1OIR,1OIU,1OIY,1OKV,1OKW,1OL1,1OL2,1P2A,1P5E,1PF8,1PKD,1PW2,1PXI,1PXJ,1PXK,1PXL,1PXM,1PXN,1PXO,1PXP,1PYE,1QMZ,1R78,1URC,1URW,1V1K,1VYW,1VYZ,1W0X,1W8C,1W98,1WCC,1Y8Y,1Y91,1YKR,2A0C,2A4L,2B52,2B53,2B54,2B55,2BHE,2BHH,2BKZ,2BPM,2BTR,2BTS,2C4G,2C5N,2C5O,2C5V,2C5X,2C5Y,2C68,2C69,2C6I,2C6K,2C6L,2C6M,2C6O,2C6T,2CCH,2CCI,2CJM,2CLX,2DUV,2EXM,2FVD,2G9X,2I40,2J9M,2JGZ,2R3F,2R3G,2R3H,2R3I,2R3J,2R3K,2R3L,2R3M,2R3N,2R3O,2R3P,2R3Q,2R3R,2R64,2UUE,2UZB,2UZD,2UZE,2UZL,2UZN,2UZO,2V0D,2V22,2VTA,2VTH,2VTI,2VTJ,2VTL,2VTM,2VTN,2VTO,2VTP,2VTQ,2VTR,2VTS,2VTT,2VU3,2VV9,2W05,2W06,2W17,2W1H,2WEV,2WFY,2WHB,2WIH,2WIP,2WMA,2WMB,2WPA,2WXV,2X1N,2XMY,2XNB,3BHT,3BHU,3BHV,3DDP,3DDQ,3DOG,3EID,3EJ1,3EOC,3EZR,3EZV,3F5X,3FZ1,3IG7,3IGG,3LE6,3LFN,3LFQ,3LFS,3MY5,3NS9,3PJ8,3PXF,3PXQ,3PXR,3PXY,3PXZ,3PY0,3PY1,3QHR,3QHW,3QL8,3QQF,3QQG,3QQH,3QQJ,3QQK,3QQL,3QRT,3QRU,3QTQ,3QTR,3QTS,3QTU,3QTW,3QTX,3QTZ,3QU0,3QWJ,3QWK,3QX2,3QX4,3QXO,3QXP,3QZF,3QZG,3QZH,3QZI,3R1Q,3R1S,3R1Y,3R28,3R6X,3R71,3R73,3R7E,3R7I,3R7U,3R7V,3R7Y,3R83,3R8L,3R8M,3R8P,3R8U,3R8V,3R8Z,3R9D,3R9H,3R9N,3R9O,3RAH,3RAI,3RAK,3RAL,3RJC,3RK5,3RK7,3RK9,3RKB,3RM6,3RM7,3RMF,3RNI,3ROY,3RPO,3RPR,3RPV,3RPY,3RZB,3S00,3S0O,3S1H,3S2P,3SQQ,3SW4,3SW7,3TI1,3TIY,3TIZ,3TNW,3ULI,3UNJ,3UNK,3WBL,4ACM,4BCK,4BCM,4BCN,4BCO,4BCP,4BCQ,4BGH,4BZD,4CFM,4CFN,4CFU,4CFV,4CFW,4CFX,4D1X,4D1Z,4EK3,4EK4,4EK5,4EK6,4EK8,4EOQ,4EOR,4EOS,4ERW,4EZ3,4EZ7,4FKG,4FKI,4FKJ,4FKL,4FKO,4FKP,4FKQ,4FKR,4FKS,4FKT,4FKU,4FKV,4FKW,4FX3,4GCJ,4I3Z,4II5,4KD1,4LYN,4NJ3,4RJ3,5A14,5AND,5ANE,5ANG,5ANI,5ANJ,5ANK,5ANO,5CYI,5D1J,5FP5,5FP6,5IEV,5IEX,5IEY,5IF1,5JQ5,5JQ8,5K4J,5L2W,5LMK,5MHQ,5NEV,5OO0,5OSJ,5UQ1,5UQ2,5UQ3,6ATH,6GUB,6GUC,6GUE,6GUF,6GUH,6GUK,6GVA,6INL,6JGM,6OQI,6P3W,6Q3B,6Q3C,6Q3F,6Q48,6Q49,6Q4A,6Q4B,6Q4C,6Q4D,6Q4E,6Q4F,6Q4H,6Q4J,6Q4K,6RIJ,6SG4,7ACK,7B5L,7B5R,7B7S,7E34,7KJS,7M2F,7NVQ

> <UniProt (SwissProt) Recommended Name of Target Chain>
Cyclin-dependent kinase 2

> <UniProt (SwissProt) Entry Name of Target Chain>
CDK2_HUMAN

> <UniProt (SwissProt) Primary ID of Target Chain>
P24941

> <UniProt (SwissProt) Secondary ID(s) of Target Chain>
A8K7C6,O75100

> <UniProt (SwissProt) Alternative ID(s) of Target Chain>


> <UniProt (TrEMBL) Submitted Name of Target Chain>


> <UniProt (TrEMBL) Entry Name of Target Chain>


> <UniProt (TrEMBL) Primary ID of Target Chain>
A0A024RB77

> <UniProt (TrEMBL) Secondary ID(s) of Target Chain>


> <UniProt (TrEMBL) Alternative ID(s) of Target Chain>


$$$$
BindingDB_50229973_mol_1

Vconf v2.0 Academic SN VC001-00000579
 35 37  0  0  0  0  0  0  0  0999 V2000
    3.2170    1.4560    0.7210 C   0  0  0  0  0  0  0  0  0  0  0
    2.9680   -0.6550   -0.1200 N   0  0  0  0  0  0  0  0  0  0  0
    4.2950   -0.4940   -0.1610 C   0  0  0  0  0  0  0  0  0  0  0
    2.3400    0.4230    0.3680 C   0  0  0  0  0  0  0  0  0  0  0
   -2.7450    1.6330   -0.4320 N   0  3  0  0  0  0  0  0  0  0  0
    4.8700    1.0340    0.4110 S   0  0  0  0  0  0  0  0  0  0  0
    1.5810    3.0330    1.5390 N   0  0  0  0  0  0  0  0  0  0  0
    1.2110    4.2220    2.0790 C   0  0  0  0  0  0  0  0  0  0  0
    2.8740    2.7090    1.2730 C   0  0  0  0  0  0  0  0  0  0  0
   -2.5390    2.2930    0.7480 C   0  0  0  0  0  0  0  0  0  0  0
   -0.0720    4.5500    2.3650 N   0  0  0  0  0  0  0  0  0  0  0
   -1.3970    3.1030    0.9370 C   0  0  0  0  0  0  0  0  0  0  0
    2.1740    5.1280    2.3660 N   0  0  0  0  0  0  0  0  0  0  0
   -3.7770    1.0540   -0.6660 O   0  5  0  0  0  0  0  0  0  0  0
   -1.9040    1.5890   -1.2910 O   0  0  0  0  0  0  0  0  0  0  0
   -1.1590    3.7660    2.1590 C   0  0  0  0  0  0  0  0  0  0  0
    5.1130   -1.4490   -0.6150 N   0  0  0  0  0  0  0  0  0  0  0
    3.8730    3.6540    1.5700 C   0  0  0  0  0  0  0  0  0  0  0
    3.4820    4.8790    2.1260 C   0  0  0  0  0  0  0  0  0  0  0
    0.8780    0.4490    0.4780 C   0  0  0  0  0  0  0  0  0  0  0
   -3.4620    2.1830    1.8120 C   0  0  0  0  0  0  0  0  0  0  0
   -3.2500    2.8600    3.0240 C   0  0  0  0  0  0  0  0  0  0  0
   -2.1040    3.6510    3.1950 C   0  0  0  0  0  0  0  0  0  0  0
   -0.2160    5.4020    2.8030 H   0  0  0  0  0  0  0  0  0  0  0
   -0.7270    3.2090    0.1750 H   0  0  0  0  0  0  0  0  0  0  0
    6.0710   -1.3010   -0.6340 H   0  0  0  0  0  0  0  0  0  0  0
    4.7440   -2.2900   -0.9280 H   0  0  0  0  0  0  0  0  0  0  0
    4.8610    3.4670    1.3930 H   0  0  0  0  0  0  0  0  0  0  0
    4.1840    5.5840    2.3530 H   0  0  0  0  0  0  0  0  0  0  0
    0.4620   -0.5020    0.1440 H   0  0  0  0  0  0  0  0  0  0  0
    0.5840    0.6190    1.5140 H   0  0  0  0  0  0  0  0  0  0  0
    0.4830    1.2450   -0.1520 H   0  0  0  0  0  0  0  0  0  0  0
   -4.2970    1.6060    1.7050 H   0  0  0  0  0  0  0  0  0  0  0
   -3.9290    2.7740    3.7810 H   0  0  0  0  0  0  0  0  0  0  0
   -1.9560    4.1390    4.0790 H   0  0  0  0  0  0  0  0  0  0  0
  1  4  2  0  0  0  0
  1  6  1  0  0  0  0
  1  9  1  0  0  0  0
  2  3  2  0  0  0  0
  2  4  1  0  0  0  0
  3  6  1  0  0  0  0
  3 17  1  0  0  0  0
  4 20  1  0  0  0  0
  5 10  1  0  0  0  0
  5 14  1  0  0  0  0
  5 15  2  0  0  0  0
  7  8  1  0  0  0  0
  7  9  2  0  0  0  0
  8 11  1  0  0  0  0
  8 13  2  0  0  0  0
  9 18  1  0  0  0  0
 10 12  2  0  0  0  0
 10 21  1  0  0  0  0
 11 16  1  0  0  0  0
 11 24  1  0  0  0  0
 12 16  1  0  0  0  0
 12 25  1  0  0  0  0
 13 19  1  0  0  0  0
 16 23  2  0  0  0  0
 17 26  1  0  0  0  0
 17 27  1  0  0  0  0
 18 19  2  0  0  0  0
 18 28  1  0  0  0  0
 19 29  1  0  0  0  0
 20 30  1  0  0  0  0
 20 31  1  0  0  0  0
 20 32  1  0  0  0  0
 21 22  2  0  0  0  0
 21 33  1  0  0  0  0
 22 23  1  0  0  0  0
 22 34  1  0  0  0  0
 23 35  1  0  0  0  0
M  CHG  1   5   1
M  CHG  1  14  -1
M  END
> <From>
www.bindingDB.org

> <BindingDB Reactant_set_id>
50519896

> <Ligand InChI>
InChI=1S/C14H12N6O2S/c1-8-12(23-13(15)17-8)11-5-6-16-14(19-11)18-9-3-2-4-10(7-9)20(21)22/h2-7H,1H3,(H2,15,17)(H,16,18,19)

> <Ligand InChI Key>
DYTKVFHLKPDNRW-UHFFFAOYSA-N

> <BindingDB MonomerID>
50229973

> <BindingDB Ligand Name>
(4-(2-Amino-4-methylthiazol-5-yl)pyrimidin-2-yl)-(3-nitrophenyl)amine::4-methyl-5-(2-(3-nitrophenylamino)pyrimidin-4-yl)thiazol-2-amine::CHEMBL298445::[4-(2-AMINO-4-METHYL-THIAZOL-5-YL)-PYRIMIDIN-2-YL]-(3-NITRO-PHENYL)-AMINE

> <Target Name Assigned by Curator or DataSource>
Cyclin-dependent kinase 2

> <Target Source Organism According to Curator or DataSource>
Homo sapiens

> <Ki (nM)>
 2.0

> <IC50 (nM)>


> <Kd (nM)>


> <EC50 (nM)>


> <kon (M-1-s-1)>


> <koff (s-1)>


> <pH>


> <Temp C>


> <Curation/DataSource>
ChEMBL

> <Article DOI>
10.1021/acs.jmedchem.6b00150

> <PMID>
27171036

> <PubChem AID>


> <Patent Number>


> <Authors>
Sonawane, YA; Taylor, MA; Napoleon, JV; Rana, S; Contreras, JI; Natarajan, A

> <Institution>
University of Nebraska Medical Center

> <Link to Ligand in BindingDB>
http://www.bindingdb.org/bind/chemsearch/marvin/MolStructure.jsp?monomerid=50229973

> <Link to Ligand-Target Pair in BindingDB>
http://www.bindingdb.org/jsp/dbsearch/PrimarySearch_ki.jsp?energyterm=kJ/mole&tag=pol&polymerid=796&target=Cyclin-dependent+kinase+2&column=ki&startPg=0&Increment=50&submit=Search

> <Link to Ligand-Target Pair in BindingDB>
http://www.bindingdb.org/jsp/dbsearch/PrimarySearch_ki.jsp?energyterm=kJ/mole&tag=r21&monomerid=50229973&enzyme=Cyclin-dependent+kinase+2&column=ki&startPg=0&Increment=50&submit=Search

> <Ligand HET ID in PDB>
CK7

> <PDB ID(s) for Ligand-Target Complex>
1PXO,2WEV,4B9D

> <PubChem CID>
447961

> <PubChem SID>
104098225

> <ChEBI ID of Ligand>


> <ChEMBL ID of Ligand>
CHEMBL298445

> <DrugBank ID of Ligand>
DB02833

> <IUPHAR_GRAC ID of Ligand>


> <KEGG ID of Ligand>


> <ZINC ID of Ligand>
ZINC02047389

> <Number of Protein Chains in Target (bigger than 1 implies a multichain complex)>
1

> <BindingDB Target Chain Sequence>
MENFQKVEKIGEGTYGVVYKARNKLTGEVVALKKIRLDTETEGVPSTAIREISLLKELNHPNIVKLLDVIHTENKLYLVFEFLHQDLKKFMDASALTGIPLPLIKSYLFQLLQGLAFCHSHRVLHRDLKPQNLLINTEGAIKLADFGLARAFGVPVRTYTHEVVTLWYRAPEILLGCKYYSTAVDIWSLGCIFAEMVTRRALFPGDSEIDQLFRIFRTLGTPDEVVWPGVTSMPDYKPSFPKWARQDFSKVVPPLDEDGRSLLSQMLHYDPNKRISAKAALAHPFFQDVTKPVPHLRL

> <PDB ID(s) of Target Chain>
1CKP,1DI8,1DM2,1E1V,1E1X,1E9H,1F5Q,1FIN,1FQ1,1FVT,1FVV,1G5S,1GIH,1GY3,1GZ8,1H00,1H01,1H07,1H08,1H0V,1H0W,1H1P,1H1Q,1H1R,1H1S,1H24,1H25,1H26,1H27,1H28,1HCK,1HCL,1JST,1JSU,1JSV,1JVP,1KE5,1KE6,1KE7,1KE8,1KE9,1OGU,1OI9,1OIQ,1OIR,1OIU,1OIY,1OKV,1OKW,1OL1,1OL2,1P2A,1P5E,1PF8,1PKD,1PW2,1PXI,1PXJ,1PXK,1PXL,1PXM,1PXN,1PXO,1PXP,1PYE,1QMZ,1R78,1URC,1URW,1V1K,1VYW,1VYZ,1W0X,1W8C,1W98,1WCC,1Y8Y,1Y91,1YKR,2A0C,2A4L,2B52,2B53,2B54,2B55,2BHE,2BHH,2BKZ,2BPM,2BTR,2BTS,2C4G,2C5N,2C5O,2C5V,2C5X,2C5Y,2C68,2C69,2C6I,2C6K,2C6L,2C6M,2C6O,2C6T,2CCH,2CCI,2CJM,2CLX,2DUV,2EXM,2FVD,2G9X,2I40,2J9M,2JGZ,2R3F,2R3G,2R3H,2R3I,2R3J,2R3K,2R3L,2R3M,2R3N,2R3O,2R3P,2R3Q,2R3R,2R64,2UUE,2UZB,2UZD,2UZE,2UZL,2UZN,2UZO,2V0D,2V22,2VTA,2VTH,2VTI,2VTJ,2VTL,2VTM,2VTN,2VTO,2VTP,2VTQ,2VTR,2VTS,2VTT,2VU3,2VV9,2W05,2W06,2W17,2W1H,2WEV,2WFY,2WHB,2WIH,2WIP,2WMA,2WMB,2WPA,2WXV,2X1N,2XMY,2XNB,3BHT,3BHU,3BHV,3DDP,3DDQ,3DOG,3EID,3EJ1,3EOC,3EZR,3EZV,3F5X,3FZ1,3IG7,3IGG,3LE6,3LFN,3LFQ,3LFS,3MY5,3NS9,3PJ8,3PXF,3PXQ,3PXR,3PXY,3PXZ,3PY0,3PY1,3QHR,3QHW,3QL8,3QQF,3QQG,3QQH,3QQJ,3QQK,3QQL,3QRT,3QRU,3QTQ,3QTR,3QTS,3QTU,3QTW,3QTX,3QTZ,3QU0,3QWJ,3QWK,3QX2,3QX4,3QXO,3QXP,3QZF,3QZG,3QZH,3QZI,3R1Q,3R1S,3R1Y,3R28,3R6X,3R71,3R73,3R7E,3R7I,3R7U,3R7V,3R7Y,3R83,3R8L,3R8M,3R8P,3R8U,3R8V,3R8Z,3R9D,3R9H,3R9N,3R9O,3RAH,3RAI,3RAK,3RAL,3RJC,3RK5,3RK7,3RK9,3RKB,3RM6,3RM7,3RMF,3RNI,3ROY,3RPO,3RPR,3RPV,3RPY,3RZB,3S00,3S0O,3S1H,3S2P,3SQQ,3SW4,3SW7,3TI1,3TIY,3TIZ,3TNW,3ULI,3UNJ,3UNK,3WBL,4ACM,4BCK,4BCM,4BCN,4BCO,4BCP,4BCQ,4BGH,4BZD,4CFM,4CFN,4CFU,4CFV,4CFW,4CFX,4D1X,4D1Z,4EK3,4EK4,4EK5,4EK6,4EK8,4EOQ,4EOR,4EOS,4ERW,4EZ3,4EZ7,4FKG,4FKI,4FKJ,4FKL,4FKO,4FKP,4FKQ,4FKR,4FKS,4FKT,4FKU,4FKV,4FKW,4FX3,4GCJ,4I3Z,4II5,4KD1,4LYN,4NJ3,4RJ3,5A14,5AND,5ANE,5ANG,5ANI,5ANJ,5ANK,5ANO,5CYI,5D1J,5FP5,5FP6,5IEV,5IEX,5IEY,5IF1,5JQ5,5JQ8,5K4J,5L2W,5LMK,5MHQ,5NEV,5OO0,5OSJ,5UQ1,5UQ2,5UQ3,6ATH,6GUB,6GUC,6GUE,6GUF,6GUH,6GUK,6GVA,6INL,6JGM,6OQI,6P3W,6Q3B,6Q3C,6Q3F,6Q48,6Q49,6Q4A,6Q4B,6Q4C,6Q4D,6Q4E,6Q4F,6Q4H,6Q4J,6Q4K,6RIJ,6SG4,7ACK,7B5L,7B5R,7B7S,7E34,7KJS,7M2F,7NVQ

> <UniProt (SwissProt) Recommended Name of Target Chain>
Cyclin-dependent kinase 2

> <UniProt (SwissProt) Entry Name of Target Chain>
CDK2_HUMAN

> <UniProt (SwissProt) Primary ID of Target Chain>
P24941

> <UniProt (SwissProt) Secondary ID(s) of Target Chain>
A8K7C6,O75100

> <UniProt (SwissProt) Alternative ID(s) of Target Chain>


> <UniProt (TrEMBL) Submitted Name of Target Chain>


> <UniProt (TrEMBL) Entry Name of Target Chain>


> <UniProt (TrEMBL) Primary ID of Target Chain>
A0A024RB77

> <UniProt (TrEMBL) Secondary ID(s) of Target Chain>


> <UniProt (TrEMBL) Alternative ID(s) of Target Chain>


$$$$
ttt_mol_1

Vconf v2.1
 41 43  0  0  0  0  0  0  0  0999 V2000
    2.2120    3.1860    0.2130 N   0  0  0  0  0  0  0  0  0  0  0
    1.5110    2.0840   -0.0870 C   0  0  0  0  0  0  0  0  0  0  0
    2.1540    0.9030    0.3000 C   0  0  0  0  0  0  0  0  0  0  0
    3.6860    1.2180    1.0490 S   0  0  0  0  0  0  0  0  0  0  0
    3.3750    2.9040    0.8120 C   0  0  0  0  0  0  0  0  0  0  0
    0.2140    2.1880   -0.7630 C   0  0  0  0  0  0  0  0  0  0  0
    4.2240    3.8750    1.1910 N   0  0  0  0  0  0  0  0  0  0  0
    1.6740   -0.4150    0.1420 C   0  0  0  0  0  0  0  0  0  0  0
    2.4410   -1.5110    0.5790 C   0  0  0  0  0  0  0  0  0  0  0
    1.9150   -2.7980    0.4090 C   0  0  0  0  0  0  0  0  0  0  0
    0.6980   -2.9630   -0.1600 N   0  0  0  0  0  0  0  0  0  0  0
   -0.0400   -1.9110   -0.5830 C   0  0  0  0  0  0  0  0  0  0  0
    0.4630   -0.6600   -0.4230 N   0  0  0  0  0  0  0  0  0  0  0
   -1.2550   -2.1640   -1.1250 N   0  0  0  0  0  0  0  0  0  0  0
   -2.1280   -1.2300   -1.5770 C   0  0  0  0  0  0  0  0  0  0  0
   -4.4120   -0.3690   -1.6130 C   0  0  0  0  0  0  0  0  0  0  0
   -3.4730   -1.3150   -1.1680 C   0  0  0  0  0  0  0  0  0  0  0
   -1.7430   -0.2060   -2.4670 C   0  0  0  0  0  0  0  0  0  0  0
   -2.6770    0.7470   -2.9120 C   0  0  0  0  0  0  0  0  0  0  0
   -4.0130    0.6630   -2.4790 C   0  0  0  0  0  0  0  0  0  0  0
   -2.1840    2.0290   -3.9740 S   0  0  0  0  0  0  0  0  0  0  0
   -0.6760    1.8160   -4.4300 O   0  0  0  0  0  0  0  0  0  0  0
   -3.4090    2.3960   -4.9190 O   0  0  0  0  0  0  0  0  0  0  0
    5.4610    3.5900    1.8200 C   0  0  0  0  0  0  0  0  0  0  0
   -2.0940    3.3610   -2.9590 N   0  0  0  0  0  0  0  0  0  0  0
   -0.5630    1.7250   -0.1540 H   0  0  0  0  0  0  0  0  0  0  0
   -0.0380    3.2370   -0.9200 H   0  0  0  0  0  0  0  0  0  0  0
    0.2700    1.6910   -1.7310 H   0  0  0  0  0  0  0  0  0  0  0
    3.9800    4.7990    1.0230 H   0  0  0  0  0  0  0  0  0  0  0
    3.3580   -1.3890    1.0130 H   0  0  0  0  0  0  0  0  0  0  0
    2.4470   -3.6120    0.7150 H   0  0  0  0  0  0  0  0  0  0  0
   -1.5440   -3.0890   -1.1400 H   0  0  0  0  0  0  0  0  0  0  0
   -5.3830   -0.4290   -1.3040 H   0  0  0  0  0  0  0  0  0  0  0
   -3.7700   -2.0600   -0.5370 H   0  0  0  0  0  0  0  0  0  0  0
   -0.7770   -0.1480   -2.7880 H   0  0  0  0  0  0  0  0  0  0  0
   -4.6950    1.3530   -2.7970 H   0  0  0  0  0  0  0  0  0  0  0
    5.9750    4.5270    2.0350 H   0  0  0  0  0  0  0  0  0  0  0
    5.2930    3.0540    2.7550 H   0  0  0  0  0  0  0  0  0  0  0
    6.0860    2.9850    1.1610 H   0  0  0  0  0  0  0  0  0  0  0
   -1.2350    3.6450   -2.6140 H   0  0  0  0  0  0  0  0  0  0  0
   -2.8990    3.8520   -2.7360 H   0  0  0  0  0  0  0  0  0  0  0
  1  2  1  0  0  0  0
  1  5  2  0  0  0  0
  2  3  2  0  0  0  0
  2  6  1  0  0  0  0
  3  4  1  0  0  0  0
  3  8  1  0  0  0  0
  4  5  1  0  0  0  0
  5  7  1  0  0  0  0
  6 26  1  0  0  0  0
  6 27  1  0  0  0  0
  6 28  1  0  0  0  0
  7 24  1  0  0  0  0
  7 29  1  0  0  0  0
  8  9  2  0  0  0  0
  8 13  1  0  0  0  0
  9 10  1  0  0  0  0
  9 30  1  0  0  0  0
 10 11  2  0  0  0  0
 10 31  1  0  0  0  0
 11 12  1  0  0  0  0
 12 13  2  0  0  0  0
 12 14  1  0  0  0  0
 14 15  1  0  0  0  0
 14 32  1  0  0  0  0
 15 17  2  0  0  0  0
 15 18  1  0  0  0  0
 16 17  1  0  0  0  0
 16 20  2  0  0  0  0
 16 33  1  0  0  0  0
 17 34  1  0  0  0  0
 18 19  2  0  0  0  0
 18 35  1  0  0  0  0
 19 20  1  0  0  0  0
 19 21  1  0  0  0  0
 20 36  1  0  0  0  0
 21 22  2  0  0  0  0
 21 23  2  0  0  0  0
 21 25  1  0  0  0  0
 24 37  1  0  0  0  0
 24 38  1  0  0  0  0
 24 39  1  0  0  0  0
 25 40  1  0  0  0  0
 25 41  1  0  0  0  0
M  END
> <From>
www.bindingDB.org

> <BindingDB Reactant_set_id>
153780

> <Ligand InChI>
InChI=1S/C15H16N6O2S2/c1-9-13(24-15(17-2)19-9)12-6-7-18-14(21-12)20-10-4-3-5-11(8-10)25(16,22)23/h3-8H,1-2H3,(H,17,19)(H2,16,22,23)(H,18,20,21)

> <Ligand InChI Key>
OTPFZAVDWPCJLJ-UHFFFAOYSA-N

> <BindingDB MonomerID>
81430

> <BindingDB Ligand Name>
CDK Inhibitor, 3

> <Target Name Assigned by Curator or DataSource>
Cyclin-dependent kinase 2

> <Target Source Organism According to Curator or DataSource>
Homo sapiens

> <Ki (nM)>
 2.4

> <IC50 (nM)>


> <Kd (nM)>


> <EC50 (nM)>


> <kon (M-1-s-1)>


> <koff (s-1)>


> <pH>


> <Temp C>


> <Curation/DataSource>
Curated from the literature by BindingDB

> <Article DOI>
10.1016/j.chembiol.2010.07.016

> <PMID>
21035734

> <PubChem AID>


> <Patent Number>


> <Authors>
Wang, S; Griffiths, G; Midgley, CA; Barnett, AL; Cooper, M; Grabarek, J; Ingram, L; Jackson, W; Kontopidis, G; McClue, SJ; McInnes, C; McLachlan, J; Meades, C; Mezna, M; Stuart, I; Thomas, MP; Zheleva, DI; Lane, DP; Jackson, RC; Glover, DM; Blake, DG; Fischer, PM

> <Institution>
Cyclacel Limited

> <Link to Ligand in BindingDB>
http://www.bindingdb.org/bind/chemsearch/marvin/MolStructure.jsp?monomerid=81430

> <Link to Ligand-Target Pair in BindingDB>
http://www.bindingdb.org/jsp/dbsearch/PrimarySearch_ki.jsp?energyterm=kJ/mole&tag=pol&polymerid=796&target=Cyclin-dependent+kinase+2&column=ki&startPg=0&Increment=50&submit=Search

> <Link to Ligand-Target Pair in BindingDB>
http://www.bindingdb.org/jsp/dbsearch/PrimarySearch_ki.jsp?energyterm=kJ/mole&tag=r21&monomerid=81430&enzyme=Cyclin-dependent+kinase+2&column=ki&startPg=0&Increment=50&submit=Search

> <Ligand HET ID in PDB>


> <PDB ID(s) for Ligand-Target Complex>


> <PubChem CID>
11675224

> <PubChem SID>
131342004

> <ChEBI ID of Ligand>


> <ChEMBL ID of Ligand>


> <DrugBank ID of Ligand>


> <IUPHAR_GRAC ID of Ligand>


> <KEGG ID of Ligand>


> <ZINC ID of Ligand>
ZINC38224817

> <Number of Protein Chains in Target (bigger than 1 implies a multichain complex)>
1

> <BindingDB Target Chain Sequence>
MENFQKVEKIGEGTYGVVYKARNKLTGEVVALKKIRLDTETEGVPSTAIREISLLKELNHPNIVKLLDVIHTENKLYLVFEFLHQDLKKFMDASALTGIPLPLIKSYLFQLLQGLAFCHSHRVLHRDLKPQNLLINTEGAIKLADFGLARAFGVPVRTYTHEVVTLWYRAPEILLGCKYYSTAVDIWSLGCIFAEMVTRRALFPGDSEIDQLFRIFRTLGTPDEVVWPGVTSMPDYKPSFPKWARQDFSKVVPPLDEDGRSLLSQMLHYDPNKRISAKAALAHPFFQDVTKPVPHLRL

> <PDB ID(s) of Target Chain>
1CKP,1DI8,1DM2,1E1V,1E1X,1E9H,1F5Q,1FIN,1FQ1,1FVT,1FVV,1G5S,1GIH,1GY3,1GZ8,1H00,1H01,1H07,1H08,1H0V,1H0W,1H1P,1H1Q,1H1R,1H1S,1H24,1H25,1H26,1H27,1H28,1HCK,1HCL,1JST,1JSU,1JSV,1JVP,1KE5,1KE6,1KE7,1KE8,1KE9,1OGU,1OI9,1OIQ,1OIR,1OIU,1OIY,1OKV,1OKW,1OL1,1OL2,1P2A,1P5E,1PF8,1PKD,1PW2,1PXI,1PXJ,1PXK,1PXL,1PXM,1PXN,1PXO,1PXP,1PYE,1QMZ,1R78,1URC,1URW,1V1K,1VYW,1VYZ,1W0X,1W8C,1W98,1WCC,1Y8Y,1Y91,1YKR,2A0C,2A4L,2B52,2B53,2B54,2B55,2BHE,2BHH,2BKZ,2BPM,2BTR,2BTS,2C4G,2C5N,2C5O,2C5V,2C5X,2C5Y,2C68,2C69,2C6I,2C6K,2C6L,2C6M,2C6O,2C6T,2CCH,2CCI,2CJM,2CLX,2DUV,2EXM,2FVD,2G9X,2I40,2J9M,2JGZ,2R3F,2R3G,2R3H,2R3I,2R3J,2R3K,2R3L,2R3M,2R3N,2R3O,2R3P,2R3Q,2R3R,2R64,2UUE,2UZB,2UZD,2UZE,2UZL,2UZN,2UZO,2V0D,2V22,2VTA,2VTH,2VTI,2VTJ,2VTL,2VTM,2VTN,2VTO,2VTP,2VTQ,2VTR,2VTS,2VTT,2VU3,2VV9,2W05,2W06,2W17,2W1H,2WEV,2WFY,2WHB,2WIH,2WIP,2WMA,2WMB,2WPA,2WXV,2X1N,2XMY,2XNB,3BHT,3BHU,3BHV,3DDP,3DDQ,3DOG,3EID,3EJ1,3EOC,3EZR,3EZV,3F5X,3FZ1,3IG7,3IGG,3LE6,3LFN,3LFQ,3LFS,3MY5,3NS9,3PJ8,3PXF,3PXQ,3PXR,3PXY,3PXZ,3PY0,3PY1,3QHR,3QHW,3QL8,3QQF,3QQG,3QQH,3QQJ,3QQK,3QQL,3QRT,3QRU,3QTQ,3QTR,3QTS,3QTU,3QTW,3QTX,3QTZ,3QU0,3QWJ,3QWK,3QX2,3QX4,3QXO,3QXP,3QZF,3QZG,3QZH,3QZI,3R1Q,3R1S,3R1Y,3R28,3R6X,3R71,3R73,3R7E,3R7I,3R7U,3R7V,3R7Y,3R83,3R8L,3R8M,3R8P,3R8U,3R8V,3R8Z,3R9D,3R9H,3R9N,3R9O,3RAH,3RAI,3RAK,3RAL,3RJC,3RK5,3RK7,3RK9,3RKB,3RM6,3RM7,3RMF,3RNI,3ROY,3RPO,3RPR,3RPV,3RPY,3RZB,3S00,3S0O,3S1H,3S2P,3SQQ,3SW4,3SW7,3TI1,3TIY,3TIZ,3TNW,3ULI,3UNJ,3UNK,3WBL,4ACM,4BCK,4BCM,4BCN,4BCO,4BCP,4BCQ,4BGH,4BZD,4CFM,4CFN,4CFU,4CFV,4CFW,4CFX,4D1X,4D1Z,4EK3,4EK4,4EK5,4EK6,4EK8,4EOQ,4EOR,4EOS,4ERW,4EZ3,4EZ7,4FKG,4FKI,4FKJ,4FKL,4FKO,4FKP,4FKQ,4FKR,4FKS,4FKT,4FKU,4FKV,4FKW,4FX3,4GCJ,4I3Z,4II5,4KD1,4LYN,4NJ3,4RJ3,5A14,5AND,5ANE,5ANG,5ANI,5ANJ,5ANK,5ANO,5CYI,5D1J,5FP5,5FP6,5IEV,5IEX,5IEY,5IF1,5JQ5,5JQ8,5K4J,5L2W,5LMK,5MHQ,5NEV,5OO0,5OSJ,5UQ1,5UQ2,5UQ3,6ATH,6GUB,6GUC,6GUE,6GUF,6GUH,6GUK,6GVA,6INL,6JGM,6OQI,6P3W,6Q3B,6Q3C,6Q3F,6Q48,6Q49,6Q4A,6Q4B,6Q4C,6Q4D,6Q4E,6Q4F,6Q4H,6Q4J,6Q4K,6RIJ,6SG4,7ACK,7B5L,7B5R,7B7S,7E34,7KJS,7M2F,7NVQ

> <UniProt (SwissProt) Recommended Name of Target Chain>
Cyclin-dependent kinase 2

> <UniProt (SwissProt) Entry Name of Target Chain>
CDK2_HUMAN

> <UniProt (SwissProt) Primary ID of Target Chain>
P24941

> <UniProt (SwissProt) Secondary ID(s) of Target Chain>
A8K7C6,O75100

> <UniProt (SwissProt) Alternative ID(s) of Target Chain>


> <UniProt (TrEMBL) Submitted Name of Target Chain>


> <UniProt (TrEMBL) Entry Name of Target Chain>


> <UniProt (TrEMBL) Primary ID of Target Chain>
A0A024RB77

> <UniProt (TrEMBL) Secondary ID(s) of Target Chain>


> <UniProt (TrEMBL) Alternative ID(s) of Target Chain>


$$$$
BindingDB_50389111_mol_1

Vconf v2.0 Academic SN VC001-00000579
 56 60  0  0  0  0  0  0  0  0999 V2000
   -1.0540    1.5180    0.4680 C   0  0  0  0  0  0  0  0  0  0  0
    0.2950    1.9580    0.4420 C   0  0  0  0  0  0  0  0  0  0  0
    0.5790    3.3060    0.7900 C   0  0  0  0  0  0  0  0  0  0  0
   -0.4440    4.2040    1.1560 C   0  0  0  0  0  0  0  0  0  0  0
   -2.0650    2.4220    0.8370 C   0  0  0  0  0  0  0  0  0  0  0
   -1.7630    3.7320    1.1710 C   0  0  0  0  0  0  0  0  0  0  0
   -2.9140    4.3440    1.4740 N   0  0  0  0  0  0  0  0  0  0  0
   -3.9090    3.5160    1.3550 N   0  0  0  0  0  0  0  0  0  0  0
   -3.4460    2.3100    0.9630 C   0  0  0  0  0  0  0  0  0  0  0
   -4.2500    1.1830    0.7420 C   0  0  0  0  0  0  0  0  0  0  0
   -5.5870    1.1720    0.8950 N   0  0  0  0  0  0  0  0  0  0  0
   -3.8140   -0.0360    0.3530 N   0  0  0  0  0  0  0  0  0  0  0
   -4.9040   -0.8130    0.2660 C   0  0  0  0  0  0  0  0  0  0  0
   -6.0200   -0.0580    0.6060 C   0  0  0  0  0  0  0  0  0  0  0
   -7.3090   -0.6120    0.6060 C   0  0  0  0  0  0  0  0  0  0  0
   -7.4470   -1.9690    0.2490 C   0  0  0  0  0  0  0  0  0  0  0
   -6.3150   -2.7400   -0.0980 C   0  0  0  0  0  0  0  0  0  0  0
   -5.0280   -2.1640   -0.0920 C   0  0  0  0  0  0  0  0  0  0  0
    1.3400    1.0730    0.0780 C   0  0  0  0  0  0  0  0  0  0  0
    1.0820   -0.2140   -0.2610 N   0  0  0  0  0  0  0  0  0  0  0
    2.5310    1.4640    0.0710 O   0  0  0  0  0  0  0  0  0  0  0
    2.0740   -1.1670   -0.6360 C   0  0  2  0  0  0  0  0  0  0  0
    2.7280   -0.7910   -1.9890 C   0  0  0  0  0  0  0  0  0  0  0
    3.6600   -1.8280   -2.4890 N   0  0  0  0  0  0  0  0  0  0  0
    4.0570   -1.5060   -3.8710 C   0  0  0  0  0  0  0  0  0  0  0
    4.8670   -1.9190   -1.6450 C   0  0  0  0  0  0  0  0  0  0  0
    1.4310   -2.5010   -0.6950 C   0  0  0  0  0  0  0  0  0  0  0
    1.8700   -3.5440    0.1470 C   0  0  0  0  0  0  0  0  0  0  0
    1.2580   -4.8080    0.0980 C   0  0  0  0  0  0  0  0  0  0  0
    0.1990   -5.0420   -0.7950 C   0  0  0  0  0  0  0  0  0  0  0
   -0.2470   -4.0120   -1.6390 C   0  0  0  0  0  0  0  0  0  0  0
    0.3670   -2.7490   -1.5890 C   0  0  0  0  0  0  0  0  0  0  0
   -1.3000    0.5580    0.2260 H   0  0  0  0  0  0  0  0  0  0  0
    1.5430    3.6450    0.7780 H   0  0  0  0  0  0  0  0  0  0  0
   -0.2300    5.1700    1.4040 H   0  0  0  0  0  0  0  0  0  0  0
   -2.9940    5.2730    1.7450 H   0  0  0  0  0  0  0  0  0  0  0
   -6.1340    1.9240    1.1690 H   0  0  0  0  0  0  0  0  0  0  0
   -8.1230   -0.0500    0.8580 H   0  0  0  0  0  0  0  0  0  0  0
   -8.3730   -2.3980    0.2400 H   0  0  0  0  0  0  0  0  0  0  0
   -6.4300   -3.7210   -0.3550 H   0  0  0  0  0  0  0  0  0  0  0
   -4.2060   -2.7160   -0.3410 H   0  0  0  0  0  0  0  0  0  0  0
    0.1620   -0.5160   -0.2240 H   0  0  0  0  0  0  0  0  0  0  0
    2.8490   -1.1650    0.1340 H   0  0  0  0  0  0  0  0  0  0  0
    1.9350   -0.6420   -2.7240 H   0  0  0  0  0  0  0  0  0  0  0
    3.2660    0.1520   -1.8810 H   0  0  0  0  0  0  0  0  0  0  0
    4.7320   -2.2750   -4.2500 H   0  0  0  0  0  0  0  0  0  0  0
    3.1740   -1.4750   -4.5100 H   0  0  0  0  0  0  0  0  0  0  0
    4.5600   -0.5380   -3.9080 H   0  0  0  0  0  0  0  0  0  0  0
    5.5590   -2.6470   -2.0700 H   0  0  0  0  0  0  0  0  0  0  0
    5.3630   -0.9490   -1.5820 H   0  0  0  0  0  0  0  0  0  0  0
    4.5990   -2.2500   -0.6420 H   0  0  0  0  0  0  0  0  0  0  0
    2.6380   -3.3840    0.8000 H   0  0  0  0  0  0  0  0  0  0  0
    1.5820   -5.5560    0.7130 H   0  0  0  0  0  0  0  0  0  0  0
   -0.2460   -5.9600   -0.8300 H   0  0  0  0  0  0  0  0  0  0  0
   -1.0160   -4.1810   -2.2890 H   0  0  0  0  0  0  0  0  0  0  0
    0.0350   -2.0060   -2.2060 H   0  0  0  0  0  0  0  0  0  0  0
  1  2  1  0  0  0  0
  1  5  2  0  0  0  0
  1 33  1  0  0  0  0
  2  3  2  0  0  0  0
  2 19  1  0  0  0  0
  3  4  1  0  0  0  0
  3 34  1  0  0  0  0
  4  6  2  0  0  0  0
  4 35  1  0  0  0  0
  5  6  1  0  0  0  0
  5  9  1  0  0  0  0
  6  7  1  0  0  0  0
  7  8  1  0  0  0  0
  7 36  1  0  0  0  0
  8  9  2  0  0  0  0
  9 10  1  0  0  0  0
 10 11  1  0  0  0  0
 10 12  2  0  0  0  0
 11 14  1  0  0  0  0
 11 37  1  0  0  0  0
 12 13  1  0  0  0  0
 13 14  1  0  0  0  0
 13 18  2  0  0  0  0
 14 15  2  0  0  0  0
 15 16  1  0  0  0  0
 15 38  1  0  0  0  0
 16 17  2  0  0  0  0
 16 39  1  0  0  0  0
 17 18  1  0  0  0  0
 17 40  1  0  0  0  0
 18 41  1  0  0  0  0
 19 20  1  0  0  0  0
 19 21  2  0  0  0  0
 22 20  1  1  0  0  0
 20 42  1  0  0  0  0
 22 23  1  0  0  0  0
 22 27  1  0  0  0  0
 22 43  1  0  0  0  0
 23 24  1  0  0  0  0
 23 44  1  0  0  0  0
 23 45  1  0  0  0  0
 24 25  1  0  0  0  0
 24 26  1  0  0  0  0
 25 46  1  0  0  0  0
 25 47  1  0  0  0  0
 25 48  1  0  0  0  0
 26 49  1  0  0  0  0
 26 50  1  0  0  0  0
 26 51  1  0  0  0  0
 27 28  2  0  0  0  0
 27 32  1  0  0  0  0
 28 29  1  0  0  0  0
 28 52  1  0  0  0  0
 29 30  2  0  0  0  0
 29 53  1  0  0  0  0
 30 31  1  0  0  0  0
 30 54  1  0  0  0  0
 31 32  2  0  0  0  0
 31 55  1  0  0  0  0
 32 56  1  0  0  0  0
M  END
> <From>
www.bindingDB.org

> <BindingDB Reactant_set_id>
50948457

> <Ligand InChI>
InChI=1S/C25H24N6O/c1-31(2)15-22(16-8-4-3-5-9-16)28-25(32)17-12-13-19-18(14-17)23(30-29-19)24-26-20-10-6-7-11-21(20)27-24/h3-14,22H,15H2,1-2H3,(H,26,27)(H,28,32)(H,29,30)/t22-/m1/s1

> <Ligand InChI Key>
SFSVHJLQTWQXIO-JOCHJYFZSA-N

> <BindingDB MonomerID>
50389111

> <BindingDB Ligand Name>
CHEMBL2064555

> <Target Name Assigned by Curator or DataSource>
Cyclin-dependent kinase 2

> <Target Source Organism According to Curator or DataSource>
Homo sapiens

> <Ki (nM)>
 3.4

> <IC50 (nM)>


> <Kd (nM)>


> <EC50 (nM)>


> <kon (M-1-s-1)>


> <koff (s-1)>


> <pH>


> <Temp C>


> <Curation/DataSource>
ChEMBL

> <Article DOI>
10.1021/jm300204j

> <PMID>
22554206

> <PubChem AID>


> <Patent Number>


> <Authors>
Guo, C; McAlpine, I; Zhang, J; Knighton, DD; Kephart, S; Johnson, MC; Li, H; Bouzida, D; Yang, A; Dong, L; Marakovits, J; Tikhe, J; Richardson, P; Guo, LC; Kania, R; Edwards, MP; Kraynov, E; Christensen, J; Piraino, J; Lee, J; Dagostino, E; Del-Carmen, C; Deng, YL; Smeal, T; Murray, BW

> <Institution>
Pfizer Inc

> <Link to Ligand in BindingDB>
http://www.bindingdb.org/bind/chemsearch/marvin/MolStructure.jsp?monomerid=50389111

> <Link to Ligand-Target Pair in BindingDB>
http://www.bindingdb.org/jsp/dbsearch/PrimarySearch_ki.jsp?energyterm=kJ/mole&tag=pol&polymerid=796&target=Cyclin-dependent+kinase+2&column=ki&startPg=0&Increment=50&submit=Search

> <Link to Ligand-Target Pair in BindingDB>
http://www.bindingdb.org/jsp/dbsearch/PrimarySearch_ki.jsp?energyterm=kJ/mole&tag=r21&monomerid=50389111&enzyme=Cyclin-dependent+kinase+2&column=ki&startPg=0&Increment=50&submit=Search

> <Ligand HET ID in PDB>


> <PDB ID(s) for Ligand-Target Complex>


> <PubChem CID>
57523615

> <PubChem SID>
160868194

> <ChEBI ID of Ligand>


> <ChEMBL ID of Ligand>
CHEMBL2064555

> <DrugBank ID of Ligand>


> <IUPHAR_GRAC ID of Ligand>


> <KEGG ID of Ligand>


> <ZINC ID of Ligand>
ZINC84669605

> <Number of Protein Chains in Target (bigger than 1 implies a multichain complex)>
1

> <BindingDB Target Chain Sequence>
MENFQKVEKIGEGTYGVVYKARNKLTGEVVALKKIRLDTETEGVPSTAIREISLLKELNHPNIVKLLDVIHTENKLYLVFEFLHQDLKKFMDASALTGIPLPLIKSYLFQLLQGLAFCHSHRVLHRDLKPQNLLINTEGAIKLADFGLARAFGVPVRTYTHEVVTLWYRAPEILLGCKYYSTAVDIWSLGCIFAEMVTRRALFPGDSEIDQLFRIFRTLGTPDEVVWPGVTSMPDYKPSFPKWARQDFSKVVPPLDEDGRSLLSQMLHYDPNKRISAKAALAHPFFQDVTKPVPHLRL

> <PDB ID(s) of Target Chain>
1CKP,1DI8,1DM2,1E1V,1E1X,1E9H,1F5Q,1FIN,1FQ1,1FVT,1FVV,1G5S,1GIH,1GY3,1GZ8,1H00,1H01,1H07,1H08,1H0V,1H0W,1H1P,1H1Q,1H1R,1H1S,1H24,1H25,1H26,1H27,1H28,1HCK,1HCL,1JST,1JSU,1JSV,1JVP,1KE5,1KE6,1KE7,1KE8,1KE9,1OGU,1OI9,1OIQ,1OIR,1OIU,1OIY,1OKV,1OKW,1OL1,1OL2,1P2A,1P5E,1PF8,1PKD,1PW2,1PXI,1PXJ,1PXK,1PXL,1PXM,1PXN,1PXO,1PXP,1PYE,1QMZ,1R78,1URC,1URW,1V1K,1VYW,1VYZ,1W0X,1W8C,1W98,1WCC,1Y8Y,1Y91,1YKR,2A0C,2A4L,2B52,2B53,2B54,2B55,2BHE,2BHH,2BKZ,2BPM,2BTR,2BTS,2C4G,2C5N,2C5O,2C5V,2C5X,2C5Y,2C68,2C69,2C6I,2C6K,2C6L,2C6M,2C6O,2C6T,2CCH,2CCI,2CJM,2CLX,2DUV,2EXM,2FVD,2G9X,2I40,2J9M,2JGZ,2R3F,2R3G,2R3H,2R3I,2R3J,2R3K,2R3L,2R3M,2R3N,2R3O,2R3P,2R3Q,2R3R,2R64,2UUE,2UZB,2UZD,2UZE,2UZL,2UZN,2UZO,2V0D,2V22,2VTA,2VTH,2VTI,2VTJ,2VTL,2VTM,2VTN,2VTO,2VTP,2VTQ,2VTR,2VTS,2VTT,2VU3,2VV9,2W05,2W06,2W17,2W1H,2WEV,2WFY,2WHB,2WIH,2WIP,2WMA,2WMB,2WPA,2WXV,2X1N,2XMY,2XNB,3BHT,3BHU,3BHV,3DDP,3DDQ,3DOG,3EID,3EJ1,3EOC,3EZR,3EZV,3F5X,3FZ1,3IG7,3IGG,3LE6,3LFN,3LFQ,3LFS,3MY5,3NS9,3PJ8,3PXF,3PXQ,3PXR,3PXY,3PXZ,3PY0,3PY1,3QHR,3QHW,3QL8,3QQF,3QQG,3QQH,3QQJ,3QQK,3QQL,3QRT,3QRU,3QTQ,3QTR,3QTS,3QTU,3QTW,3QTX,3QTZ,3QU0,3QWJ,3QWK,3QX2,3QX4,3QXO,3QXP,3QZF,3QZG,3QZH,3QZI,3R1Q,3R1S,3R1Y,3R28,3R6X,3R71,3R73,3R7E,3R7I,3R7U,3R7V,3R7Y,3R83,3R8L,3R8M,3R8P,3R8U,3R8V,3R8Z,3R9D,3R9H,3R9N,3R9O,3RAH,3RAI,3RAK,3RAL,3RJC,3RK5,3RK7,3RK9,3RKB,3RM6,3RM7,3RMF,3RNI,3ROY,3RPO,3RPR,3RPV,3RPY,3RZB,3S00,3S0O,3S1H,3S2P,3SQQ,3SW4,3SW7,3TI1,3TIY,3TIZ,3TNW,3ULI,3UNJ,3UNK,3WBL,4ACM,4BCK,4BCM,4BCN,4BCO,4BCP,4BCQ,4BGH,4BZD,4CFM,4CFN,4CFU,4CFV,4CFW,4CFX,4D1X,4D1Z,4EK3,4EK4,4EK5,4EK6,4EK8,4EOQ,4EOR,4EOS,4ERW,4EZ3,4EZ7,4FKG,4FKI,4FKJ,4FKL,4FKO,4FKP,4FKQ,4FKR,4FKS,4FKT,4FKU,4FKV,4FKW,4FX3,4GCJ,4I3Z,4II5,4KD1,4LYN,4NJ3,4RJ3,5A14,5AND,5ANE,5ANG,5ANI,5ANJ,5ANK,5ANO,5CYI,5D1J,5FP5,5FP6,5IEV,5IEX,5IEY,5IF1,5JQ5,5JQ8,5K4J,5L2W,5LMK,5MHQ,5NEV,5OO0,5OSJ,5UQ1,5UQ2,5UQ3,6ATH,6GUB,6GUC,6GUE,6GUF,6GUH,6GUK,6GVA,6INL,6JGM,6OQI,6P3W,6Q3B,6Q3C,6Q3F,6Q48,6Q49,6Q4A,6Q4B,6Q4C,6Q4D,6Q4E,6Q4F,6Q4H,6Q4J,6Q4K,6RIJ,6SG4,7ACK,7B5L,7B5R,7B7S,7E34,7KJS,7M2F,7NVQ

> <UniProt (SwissProt) Recommended Name of Target Chain>
Cyclin-dependent kinase 2

> <UniProt (SwissProt) Entry Name of Target Chain>
CDK2_HUMAN

> <UniProt (SwissProt) Primary ID of Target Chain>
P24941

> <UniProt (SwissProt) Secondary ID(s) of Target Chain>
A8K7C6,O75100

> <UniProt (SwissProt) Alternative ID(s) of Target Chain>


> <UniProt (TrEMBL) Submitted Name of Target Chain>


> <UniProt (TrEMBL) Entry Name of Target Chain>


> <UniProt (TrEMBL) Primary ID of Target Chain>
A0A024RB77

> <UniProt (TrEMBL) Secondary ID(s) of Target Chain>


> <UniProt (TrEMBL) Alternative ID(s) of Target Chain>


$$$$
ttt_mol_1

Vconf v2.1
 45 47  0  0  0  0  0  0  0  0999 V2000
    2.0270    4.1490    1.0760 N   0  0  0  0  0  0  0  0  0  0  0
    1.7820    2.8430    0.9080 C   0  0  0  0  0  0  0  0  0  0  0
    2.8960    2.1300    0.4510 C   0  0  0  0  0  0  0  0  0  0  0
    4.2760    3.1570    0.2370 S   0  0  0  0  0  0  0  0  0  0  0
    3.2870    4.4750    0.7680 C   0  0  0  0  0  0  0  0  0  0  0
    0.4570    2.2860    1.2030 C   0  0  0  0  0  0  0  0  0  0  0
    3.7330    5.7390    0.8710 N   0  0  0  0  0  0  0  0  0  0  0
    2.9620    0.7480    0.1720 C   0  0  0  0  0  0  0  0  0  0  0
    4.1610    0.1710   -0.2870 C   0  0  0  0  0  0  0  0  0  0  0
    4.1720   -1.2020   -0.5610 C   0  0  0  0  0  0  0  0  0  0  0
    3.0510   -1.9380   -0.3840 N   0  0  0  0  0  0  0  0  0  0  0
    1.8990   -1.3860    0.0620 C   0  0  0  0  0  0  0  0  0  0  0
    1.8780   -0.0550    0.3300 N   0  0  0  0  0  0  0  0  0  0  0
    0.8210   -2.1940    0.2000 N   0  0  0  0  0  0  0  0  0  0  0
   -0.4060   -1.8120    0.6300 C   0  0  0  0  0  0  0  0  0  0  0
   -2.8240   -1.8540    0.2980 C   0  0  0  0  0  0  0  0  0  0  0
   -1.5290   -2.2020   -0.1240 C   0  0  0  0  0  0  0  0  0  0  0
   -0.5970   -1.0930    1.8280 C   0  0  0  0  0  0  0  0  0  0  0
   -1.8910   -0.7420    2.2550 C   0  0  0  0  0  0  0  0  0  0  0
   -3.0030   -1.1240    1.4840 C   0  0  0  0  0  0  0  0  0  0  0
   -2.1140    0.1340    3.7390 S   0  0  0  0  0  0  0  0  0  0  0
   -0.7830    0.9300    4.0910 O   0  0  0  0  0  0  0  0  0  0  0
   -3.5680    0.7790    3.7630 O   0  0  0  0  0  0  0  0  0  0  0
   -2.1860   -1.1420    5.0060 C   0  0  0  0  0  0  0  0  0  0  0
    5.0650    6.0950    0.5490 C   0  0  0  0  0  0  0  0  0  0  0
    5.2640    7.5980    0.7740 C   0  0  0  0  0  0  0  0  0  0  0
    0.0400    1.8220    0.3100 H   0  0  0  0  0  0  0  0  0  0  0
    0.5470    1.5440    1.9950 H   0  0  0  0  0  0  0  0  0  0  0
   -0.2140    3.0780    1.5380 H   0  0  0  0  0  0  0  0  0  0  0
    3.1200    6.4250    1.1790 H   0  0  0  0  0  0  0  0  0  0  0
    5.0070    0.7250   -0.4260 H   0  0  0  0  0  0  0  0  0  0  0
    5.0260   -1.6490   -0.8970 H   0  0  0  0  0  0  0  0  0  0  0
    0.9280   -3.1160   -0.0790 H   0  0  0  0  0  0  0  0  0  0  0
   -3.6340   -2.1350   -0.2560 H   0  0  0  0  0  0  0  0  0  0  0
   -1.4070   -2.7370   -0.9850 H   0  0  0  0  0  0  0  0  0  0  0
    0.2080   -0.8260    2.3960 H   0  0  0  0  0  0  0  0  0  0  0
   -3.9450   -0.8750    1.7890 H   0  0  0  0  0  0  0  0  0  0  0
   -2.3280   -0.6740    5.9800 H   0  0  0  0  0  0  0  0  0  0  0
   -3.0200   -1.8130    4.8000 H   0  0  0  0  0  0  0  0  0  0  0
   -1.2540   -1.7070    5.0070 H   0  0  0  0  0  0  0  0  0  0  0
    5.7620    5.5460    1.1850 H   0  0  0  0  0  0  0  0  0  0  0
    5.2710    5.8630   -0.4970 H   0  0  0  0  0  0  0  0  0  0  0
    6.2900    7.8690    0.5250 H   0  0  0  0  0  0  0  0  0  0  0
    4.5800    8.1610    0.1380 H   0  0  0  0  0  0  0  0  0  0  0
    5.0720    7.8430    1.8190 H   0  0  0  0  0  0  0  0  0  0  0
  1  2  1  0  0  0  0
  1  5  2  0  0  0  0
  2  3  2  0  0  0  0
  2  6  1  0  0  0  0
  3  4  1  0  0  0  0
  3  8  1  0  0  0  0
  4  5  1  0  0  0  0
  5  7  1  0  0  0  0
  6 27  1  0  0  0  0
  6 28  1  0  0  0  0
  6 29  1  0  0  0  0
  7 25  1  0  0  0  0
  7 30  1  0  0  0  0
  8  9  2  0  0  0  0
  8 13  1  0  0  0  0
  9 10  1  0  0  0  0
  9 31  1  0  0  0  0
 10 11  2  0  0  0  0
 10 32  1  0  0  0  0
 11 12  1  0  0  0  0
 12 13  2  0  0  0  0
 12 14  1  0  0  0  0
 14 15  1  0  0  0  0
 14 33  1  0  0  0  0
 15 17  2  0  0  0  0
 15 18  1  0  0  0  0
 16 17  1  0  0  0  0
 16 20  2  0  0  0  0
 16 34  1  0  0  0  0
 17 35  1  0  0  0  0
 18 19  2  0  0  0  0
 18 36  1  0  0  0  0
 19 20  1  0  0  0  0
 19 21  1  0  0  0  0
 20 37  1  0  0  0  0
 21 22  2  0  0  0  0
 21 23  2  0  0  0  0
 21 24  1  0  0  0  0
 24 38  1  0  0  0  0
 24 39  1  0  0  0  0
 24 40  1  0  0  0  0
 25 26  1  0  0  0  0
 25 41  1  0  0  0  0
 25 42  1  0  0  0  0
 26 43  1  0  0  0  0
 26 44  1  0  0  0  0
 26 45  1  0  0  0  0
M  END
> <From>
www.bindingDB.org

> <BindingDB Reactant_set_id>
153784

> <Ligand InChI>
InChI=1S/C17H19N5O2S2/c1-4-18-17-20-11(2)15(25-17)14-8-9-19-16(22-14)21-12-6-5-7-13(10-12)26(3,23)24/h5-10H,4H2,1-3H3,(H,18,20)(H,19,21,22)

> <Ligand InChI Key>
XUKYEEYMPUGKNF-UHFFFAOYSA-N

> <BindingDB MonomerID>
81434

> <BindingDB Ligand Name>
CDK Inhibitor, 7

> <Target Name Assigned by Curator or DataSource>
Cyclin-dependent kinase 2

> <Target Source Organism According to Curator or DataSource>
Homo sapiens

> <Ki (nM)>
 7.6

> <IC50 (nM)>


> <Kd (nM)>


> <EC50 (nM)>


> <kon (M-1-s-1)>


> <koff (s-1)>


> <pH>


> <Temp C>


> <Curation/DataSource>
Curated from the literature by BindingDB

> <Article DOI>
10.1016/j.chembiol.2010.07.016

> <PMID>
21035734

> <PubChem AID>


> <Patent Number>


> <Authors>
Wang, S; Griffiths, G; Midgley, CA; Barnett, AL; Cooper, M; Grabarek, J; Ingram, L; Jackson, W; Kontopidis, G; McClue, SJ; McInnes, C; McLachlan, J; Meades, C; Mezna, M; Stuart, I; Thomas, MP; Zheleva, DI; Lane, DP; Jackson, RC; Glover, DM; Blake, DG; Fischer, PM

> <Institution>
Cyclacel Limited

> <Link to Ligand in BindingDB>
http://www.bindingdb.org/bind/chemsearch/marvin/MolStructure.jsp?monomerid=81434

> <Link to Ligand-Target Pair in BindingDB>
http://www.bindingdb.org/jsp/dbsearch/PrimarySearch_ki.jsp?energyterm=kJ/mole&tag=pol&polymerid=796&target=Cyclin-dependent+kinase+2&column=ki&startPg=0&Increment=50&submit=Search

> <Link to Ligand-Target Pair in BindingDB>
http://www.bindingdb.org/jsp/dbsearch/PrimarySearch_ki.jsp?energyterm=kJ/mole&tag=r21&monomerid=81434&enzyme=Cyclin-dependent+kinase+2&column=ki&startPg=0&Increment=50&submit=Search

> <Ligand HET ID in PDB>


> <PDB ID(s) for Ligand-Target Complex>


> <PubChem CID>
11682552

> <PubChem SID>
131342008

> <ChEBI ID of Ligand>


> <ChEMBL ID of Ligand>


> <DrugBank ID of Ligand>


> <IUPHAR_GRAC ID of Ligand>


> <KEGG ID of Ligand>


> <ZINC ID of Ligand>
ZINC38238888

> <Number of Protein Chains in Target (bigger than 1 implies a multichain complex)>
1

> <BindingDB Target Chain Sequence>
MENFQKVEKIGEGTYGVVYKARNKLTGEVVALKKIRLDTETEGVPSTAIREISLLKELNHPNIVKLLDVIHTENKLYLVFEFLHQDLKKFMDASALTGIPLPLIKSYLFQLLQGLAFCHSHRVLHRDLKPQNLLINTEGAIKLADFGLARAFGVPVRTYTHEVVTLWYRAPEILLGCKYYSTAVDIWSLGCIFAEMVTRRALFPGDSEIDQLFRIFRTLGTPDEVVWPGVTSMPDYKPSFPKWARQDFSKVVPPLDEDGRSLLSQMLHYDPNKRISAKAALAHPFFQDVTKPVPHLRL

> <PDB ID(s) of Target Chain>
1CKP,1DI8,1DM2,1E1V,1E1X,1E9H,1F5Q,1FIN,1FQ1,1FVT,1FVV,1G5S,1GIH,1GY3,1GZ8,1H00,1H01,1H07,1H08,1H0V,1H0W,1H1P,1H1Q,1H1R,1H1S,1H24,1H25,1H26,1H27,1H28,1HCK,1HCL,1JST,1JSU,1JSV,1JVP,1KE5,1KE6,1KE7,1KE8,1KE9,1OGU,1OI9,1OIQ,1OIR,1OIU,1OIY,1OKV,1OKW,1OL1,1OL2,1P2A,1P5E,1PF8,1PKD,1PW2,1PXI,1PXJ,1PXK,1PXL,1PXM,1PXN,1PXO,1PXP,1PYE,1QMZ,1R78,1URC,1URW,1V1K,1VYW,1VYZ,1W0X,1W8C,1W98,1WCC,1Y8Y,1Y91,1YKR,2A0C,2A4L,2B52,2B53,2B54,2B55,2BHE,2BHH,2BKZ,2BPM,2BTR,2BTS,2C4G,2C5N,2C5O,2C5V,2C5X,2C5Y,2C68,2C69,2C6I,2C6K,2C6L,2C6M,2C6O,2C6T,2CCH,2CCI,2CJM,2CLX,2DUV,2EXM,2FVD,2G9X,2I40,2J9M,2JGZ,2R3F,2R3G,2R3H,2R3I,2R3J,2R3K,2R3L,2R3M,2R3N,2R3O,2R3P,2R3Q,2R3R,2R64,2UUE,2UZB,2UZD,2UZE,2UZL,2UZN,2UZO,2V0D,2V22,2VTA,2VTH,2VTI,2VTJ,2VTL,2VTM,2VTN,2VTO,2VTP,2VTQ,2VTR,2VTS,2VTT,2VU3,2VV9,2W05,2W06,2W17,2W1H,2WEV,2WFY,2WHB,2WIH,2WIP,2WMA,2WMB,2WPA,2WXV,2X1N,2XMY,2XNB,3BHT,3BHU,3BHV,3DDP,3DDQ,3DOG,3EID,3EJ1,3EOC,3EZR,3EZV,3F5X,3FZ1,3IG7,3IGG,3LE6,3LFN,3LFQ,3LFS,3MY5,3NS9,3PJ8,3PXF,3PXQ,3PXR,3PXY,3PXZ,3PY0,3PY1,3QHR,3QHW,3QL8,3QQF,3QQG,3QQH,3QQJ,3QQK,3QQL,3QRT,3QRU,3QTQ,3QTR,3QTS,3QTU,3QTW,3QTX,3QTZ,3QU0,3QWJ,3QWK,3QX2,3QX4,3QXO,3QXP,3QZF,3QZG,3QZH,3QZI,3R1Q,3R1S,3R1Y,3R28,3R6X,3R71,3R73,3R7E,3R7I,3R7U,3R7V,3R7Y,3R83,3R8L,3R8M,3R8P,3R8U,3R8V,3R8Z,3R9D,3R9H,3R9N,3R9O,3RAH,3RAI,3RAK,3RAL,3RJC,3RK5,3RK7,3RK9,3RKB,3RM6,3RM7,3RMF,3RNI,3ROY,3RPO,3RPR,3RPV,3RPY,3RZB,3S00,3S0O,3S1H,3S2P,3SQQ,3SW4,3SW7,3TI1,3TIY,3TIZ,3TNW,3ULI,3UNJ,3UNK,3WBL,4ACM,4BCK,4BCM,4BCN,4BCO,4BCP,4BCQ,4BGH,4BZD,4CFM,4CFN,4CFU,4CFV,4CFW,4CFX,4D1X,4D1Z,4EK3,4EK4,4EK5,4EK6,4EK8,4EOQ,4EOR,4EOS,4ERW,4EZ3,4EZ7,4FKG,4FKI,4FKJ,4FKL,4FKO,4FKP,4FKQ,4FKR,4FKS,4FKT,4FKU,4FKV,4FKW,4FX3,4GCJ,4I3Z,4II5,4KD1,4LYN,4NJ3,4RJ3,5A14,5AND,5ANE,5ANG,5ANI,5ANJ,5ANK,5ANO,5CYI,5D1J,5FP5,5FP6,5IEV,5IEX,5IEY,5IF1,5JQ5,5JQ8,5K4J,5L2W,5LMK,5MHQ,5NEV,5OO0,5OSJ,5UQ1,5UQ2,5UQ3,6ATH,6GUB,6GUC,6GUE,6GUF,6GUH,6GUK,6GVA,6INL,6JGM,6OQI,6P3W,6Q3B,6Q3C,6Q3F,6Q48,6Q49,6Q4A,6Q4B,6Q4C,6Q4D,6Q4E,6Q4F,6Q4H,6Q4J,6Q4K,6RIJ,6SG4,7ACK,7B5L,7B5R,7B7S,7E34,7KJS,7M2F,7NVQ

> <UniProt (SwissProt) Recommended Name of Target Chain>
Cyclin-dependent kinase 2

> <UniProt (SwissProt) Entry Name of Target Chain>
CDK2_HUMAN

> <UniProt (SwissProt) Primary ID of Target Chain>
P24941

> <UniProt (SwissProt) Secondary ID(s) of Target Chain>
A8K7C6,O75100

> <UniProt (SwissProt) Alternative ID(s) of Target Chain>


> <UniProt (TrEMBL) Submitted Name of Target Chain>


> <UniProt (TrEMBL) Entry Name of Target Chain>


> <UniProt (TrEMBL) Primary ID of Target Chain>
A0A024RB77

> <UniProt (TrEMBL) Secondary ID(s) of Target Chain>


> <UniProt (TrEMBL) Alternative ID(s) of Target Chain>


$$$$
ttt_mol_1

Vconf v2.1
 41 43  0  0  0  0  0  0  0  0999 V2000
    2.1480    3.1400   -0.0270 N   0  0  0  0  0  0  0  0  0  0  0
    1.4010    2.0300   -0.0880 C   0  0  0  0  0  0  0  0  0  0  0
    2.1230    0.8660    0.2010 C   0  0  0  0  0  0  0  0  0  0  0
    3.7850    1.2070    0.5560 S   0  0  0  0  0  0  0  0  0  0  0
    3.4190    2.8780    0.2980 C   0  0  0  0  0  0  0  0  0  0  0
   -0.0230    2.1060   -0.4330 C   0  0  0  0  0  0  0  0  0  0  0
    4.3370    3.8440    0.4120 N   0  0  0  0  0  0  0  0  0  0  0
    1.6240   -0.4530    0.2290 C   0  0  0  0  0  0  0  0  0  0  0
    2.4680   -1.5300    0.5570 C   0  0  0  0  0  0  0  0  0  0  0
    1.9160   -2.8180    0.5850 C   0  0  0  0  0  0  0  0  0  0  0
    0.6060   -3.0010    0.3000 N   0  0  0  0  0  0  0  0  0  0  0
   -0.2040   -1.9670   -0.0220 C   0  0  0  0  0  0  0  0  0  0  0
    0.3210   -0.7160   -0.0500 N   0  0  0  0  0  0  0  0  0  0  0
   -1.5050   -2.2320   -0.2850 N   0  0  0  0  0  0  0  0  0  0  0
   -2.4420   -1.3130   -0.6220 C   0  0  0  0  0  0  0  0  0  0  0
   -4.6500   -0.3540   -0.2250 C   0  0  0  0  0  0  0  0  0  0  0
   -3.6460   -1.2790    0.1060 C   0  0  0  0  0  0  0  0  0  0  0
   -2.2660   -0.4280   -1.7060 C   0  0  0  0  0  0  0  0  0  0  0
   -3.2700    0.4980   -2.0460 C   0  0  0  0  0  0  0  0  0  0  0
   -4.4610    0.5340   -1.2970 C   0  0  0  0  0  0  0  0  0  0  0
   -3.0380    1.5920   -3.3760 S   0  0  0  0  0  0  0  0  0  0  0
   -1.9530    0.9760   -4.3610 O   0  0  0  0  0  0  0  0  0  0  0
   -4.4540    2.1630   -3.8240 O   0  0  0  0  0  0  0  0  0  0  0
   -2.2210    2.8990   -2.7040 N   0  0  0  0  0  0  0  0  0  0  0
   -2.9010    3.8720   -1.9390 C   0  0  0  0  0  0  0  0  0  0  0
   -0.2050    1.5470   -1.3500 H   0  0  0  0  0  0  0  0  0  0  0
   -0.6250    1.6900    0.3760 H   0  0  0  0  0  0  0  0  0  0  0
   -0.3120    3.1460   -0.5880 H   0  0  0  0  0  0  0  0  0  0  0
    5.2510    3.6200    0.6480 H   0  0  0  0  0  0  0  0  0  0  0
    4.0870    4.7670    0.2570 H   0  0  0  0  0  0  0  0  0  0  0
    3.4550   -1.3940    0.7760 H   0  0  0  0  0  0  0  0  0  0  0
    2.5020   -3.6190    0.8230 H   0  0  0  0  0  0  0  0  0  0  0
   -1.7980   -3.1500   -0.1790 H   0  0  0  0  0  0  0  0  0  0  0
   -5.5180   -0.3290    0.3110 H   0  0  0  0  0  0  0  0  0  0  0
   -3.7920   -1.9240    0.8840 H   0  0  0  0  0  0  0  0  0  0  0
   -1.4050   -0.4560   -2.2520 H   0  0  0  0  0  0  0  0  0  0  0
   -5.1920    1.2050   -1.5350 H   0  0  0  0  0  0  0  0  0  0  0
   -1.2660    2.9810   -2.8500 H   0  0  0  0  0  0  0  0  0  0  0
   -2.1920    4.6290   -1.6030 H   0  0  0  0  0  0  0  0  0  0  0
   -3.6710    4.3430   -2.5500 H   0  0  0  0  0  0  0  0  0  0  0
   -3.3630    3.4010   -1.0720 H   0  0  0  0  0  0  0  0  0  0  0
  1  2  1  0  0  0  0
  1  5  2  0  0  0  0
  2  3  2  0  0  0  0
  2  6  1  0  0  0  0
  3  4  1  0  0  0  0
  3  8  1  0  0  0  0
  4  5  1  0  0  0  0
  5  7  1  0  0  0  0
  6 26  1  0  0  0  0
  6 27  1  0  0  0  0
  6 28  1  0  0  0  0
  7 29  1  0  0  0  0
  7 30  1  0  0  0  0
  8  9  2  0  0  0  0
  8 13  1  0  0  0  0
  9 10  1  0  0  0  0
  9 31  1  0  0  0  0
 10 11  2  0  0  0  0
 10 32  1  0  0  0  0
 11 12  1  0  0  0  0
 12 13  2  0  0  0  0
 12 14  1  0  0  0  0
 14 15  1  0  0  0  0
 14 33  1  0  0  0  0
 15 17  2  0  0  0  0
 15 18  1  0  0  0  0
 16 17  1  0  0  0  0
 16 20  2  0  0  0  0
 16 34  1  0  0  0  0
 17 35  1  0  0  0  0
 18 19  2  0  0  0  0
 18 36  1  0  0  0  0
 19 20  1  0  0  0  0
 19 21  1  0  0  0  0
 20 37  1  0  0  0  0
 21 22  2  0  0  0  0
 21 23  2  0  0  0  0
 21 24  1  0  0  0  0
 24 25  1  0  0  0  0
 24 38  1  0  0  0  0
 25 39  1  0  0  0  0
 25 40  1  0  0  0  0
 25 41  1  0  0  0  0
M  END
> <From>
www.bindingDB.org

> <BindingDB Reactant_set_id>
153782

> <Ligand InChI>
InChI=1S/C15H16N6O2S2/c1-9-13(24-14(16)19-9)12-6-7-18-15(21-12)20-10-4-3-5-11(8-10)25(22,23)17-2/h3-8,17H,1-2H3,(H2,16,19)(H,18,20,21)

> <Ligand InChI Key>
MPLSNQAHULTSPR-UHFFFAOYSA-N

> <BindingDB MonomerID>
81432

> <BindingDB Ligand Name>
CDK Inhibitor, 5

> <Target Name Assigned by Curator or DataSource>
Cyclin-dependent kinase 2

> <Target Source Organism According to Curator or DataSource>
Homo sapiens

> <Ki (nM)>
 26

> <IC50 (nM)>


> <Kd (nM)>


> <EC50 (nM)>


> <kon (M-1-s-1)>


> <koff (s-1)>


> <pH>


> <Temp C>


> <Curation/DataSource>
Curated from the literature by BindingDB

> <Article DOI>
10.1016/j.chembiol.2010.07.016

> <PMID>
21035734

> <PubChem AID>


> <Patent Number>


> <Authors>
Wang, S; Griffiths, G; Midgley, CA; Barnett, AL; Cooper, M; Grabarek, J; Ingram, L; Jackson, W; Kontopidis, G; McClue, SJ; McInnes, C; McLachlan, J; Meades, C; Mezna, M; Stuart, I; Thomas, MP; Zheleva, DI; Lane, DP; Jackson, RC; Glover, DM; Blake, DG; Fischer, PM

> <Institution>
Cyclacel Limited

> <Link to Ligand in BindingDB>
http://www.bindingdb.org/bind/chemsearch/marvin/MolStructure.jsp?monomerid=81432

> <Link to Ligand-Target Pair in BindingDB>
http://www.bindingdb.org/jsp/dbsearch/PrimarySearch_ki.jsp?energyterm=kJ/mole&tag=pol&polymerid=796&target=Cyclin-dependent+kinase+2&column=ki&startPg=0&Increment=50&submit=Search

> <Link to Ligand-Target Pair in BindingDB>
http://www.bindingdb.org/jsp/dbsearch/PrimarySearch_ki.jsp?energyterm=kJ/mole&tag=r21&monomerid=81432&enzyme=Cyclin-dependent+kinase+2&column=ki&startPg=0&Increment=50&submit=Search

> <Ligand HET ID in PDB>


> <PDB ID(s) for Ligand-Target Complex>


> <PubChem CID>
11689352

> <PubChem SID>
131342006

> <ChEBI ID of Ligand>


> <ChEMBL ID of Ligand>


> <DrugBank ID of Ligand>


> <IUPHAR_GRAC ID of Ligand>


> <KEGG ID of Ligand>


> <ZINC ID of Ligand>
ZINC38252668

> <Number of Protein Chains in Target (bigger than 1 implies a multichain complex)>
1

> <BindingDB Target Chain Sequence>
MENFQKVEKIGEGTYGVVYKARNKLTGEVVALKKIRLDTETEGVPSTAIREISLLKELNHPNIVKLLDVIHTENKLYLVFEFLHQDLKKFMDASALTGIPLPLIKSYLFQLLQGLAFCHSHRVLHRDLKPQNLLINTEGAIKLADFGLARAFGVPVRTYTHEVVTLWYRAPEILLGCKYYSTAVDIWSLGCIFAEMVTRRALFPGDSEIDQLFRIFRTLGTPDEVVWPGVTSMPDYKPSFPKWARQDFSKVVPPLDEDGRSLLSQMLHYDPNKRISAKAALAHPFFQDVTKPVPHLRL

> <PDB ID(s) of Target Chain>
1CKP,1DI8,1DM2,1E1V,1E1X,1E9H,1F5Q,1FIN,1FQ1,1FVT,1FVV,1G5S,1GIH,1GY3,1GZ8,1H00,1H01,1H07,1H08,1H0V,1H0W,1H1P,1H1Q,1H1R,1H1S,1H24,1H25,1H26,1H27,1H28,1HCK,1HCL,1JST,1JSU,1JSV,1JVP,1KE5,1KE6,1KE7,1KE8,1KE9,1OGU,1OI9,1OIQ,1OIR,1OIU,1OIY,1OKV,1OKW,1OL1,1OL2,1P2A,1P5E,1PF8,1PKD,1PW2,1PXI,1PXJ,1PXK,1PXL,1PXM,1PXN,1PXO,1PXP,1PYE,1QMZ,1R78,1URC,1URW,1V1K,1VYW,1VYZ,1W0X,1W8C,1W98,1WCC,1Y8Y,1Y91,1YKR,2A0C,2A4L,2B52,2B53,2B54,2B55,2BHE,2BHH,2BKZ,2BPM,2BTR,2BTS,2C4G,2C5N,2C5O,2C5V,2C5X,2C5Y,2C68,2C69,2C6I,2C6K,2C6L,2C6M,2C6O,2C6T,2CCH,2CCI,2CJM,2CLX,2DUV,2EXM,2FVD,2G9X,2I40,2J9M,2JGZ,2R3F,2R3G,2R3H,2R3I,2R3J,2R3K,2R3L,2R3M,2R3N,2R3O,2R3P,2R3Q,2R3R,2R64,2UUE,2UZB,2UZD,2UZE,2UZL,2UZN,2UZO,2V0D,2V22,2VTA,2VTH,2VTI,2VTJ,2VTL,2VTM,2VTN,2VTO,2VTP,2VTQ,2VTR,2VTS,2VTT,2VU3,2VV9,2W05,2W06,2W17,2W1H,2WEV,2WFY,2WHB,2WIH,2WIP,2WMA,2WMB,2WPA,2WXV,2X1N,2XMY,2XNB,3BHT,3BHU,3BHV,3DDP,3DDQ,3DOG,3EID,3EJ1,3EOC,3EZR,3EZV,3F5X,3FZ1,3IG7,3IGG,3LE6,3LFN,3LFQ,3LFS,3MY5,3NS9,3PJ8,3PXF,3PXQ,3PXR,3PXY,3PXZ,3PY0,3PY1,3QHR,3QHW,3QL8,3QQF,3QQG,3QQH,3QQJ,3QQK,3QQL,3QRT,3QRU,3QTQ,3QTR,3QTS,3QTU,3QTW,3QTX,3QTZ,3QU0,3QWJ,3QWK,3QX2,3QX4,3QXO,3QXP,3QZF,3QZG,3QZH,3QZI,3R1Q,3R1S,3R1Y,3R28,3R6X,3R71,3R73,3R7E,3R7I,3R7U,3R7V,3R7Y,3R83,3R8L,3R8M,3R8P,3R8U,3R8V,3R8Z,3R9D,3R9H,3R9N,3R9O,3RAH,3RAI,3RAK,3RAL,3RJC,3RK5,3RK7,3RK9,3RKB,3RM6,3RM7,3RMF,3RNI,3ROY,3RPO,3RPR,3RPV,3RPY,3RZB,3S00,3S0O,3S1H,3S2P,3SQQ,3SW4,3SW7,3TI1,3TIY,3TIZ,3TNW,3ULI,3UNJ,3UNK,3WBL,4ACM,4BCK,4BCM,4BCN,4BCO,4BCP,4BCQ,4BGH,4BZD,4CFM,4CFN,4CFU,4CFV,4CFW,4CFX,4D1X,4D1Z,4EK3,4EK4,4EK5,4EK6,4EK8,4EOQ,4EOR,4EOS,4ERW,4EZ3,4EZ7,4FKG,4FKI,4FKJ,4FKL,4FKO,4FKP,4FKQ,4FKR,4FKS,4FKT,4FKU,4FKV,4FKW,4FX3,4GCJ,4I3Z,4II5,4KD1,4LYN,4NJ3,4RJ3,5A14,5AND,5ANE,5ANG,5ANI,5ANJ,5ANK,5ANO,5CYI,5D1J,5FP5,5FP6,5IEV,5IEX,5IEY,5IF1,5JQ5,5JQ8,5K4J,5L2W,5LMK,5MHQ,5NEV,5OO0,5OSJ,5UQ1,5UQ2,5UQ3,6ATH,6GUB,6GUC,6GUE,6GUF,6GUH,6GUK,6GVA,6INL,6JGM,6OQI,6P3W,6Q3B,6Q3C,6Q3F,6Q48,6Q49,6Q4A,6Q4B,6Q4C,6Q4D,6Q4E,6Q4F,6Q4H,6Q4J,6Q4K,6RIJ,6SG4,7ACK,7B5L,7B5R,7B7S,7E34,7KJS,7M2F,7NVQ

> <UniProt (SwissProt) Recommended Name of Target Chain>
Cyclin-dependent kinase 2

> <UniProt (SwissProt) Entry Name of Target Chain>
CDK2_HUMAN

> <UniProt (SwissProt) Primary ID of Target Chain>
P24941

> <UniProt (SwissProt) Secondary ID(s) of Target Chain>
A8K7C6,O75100

> <UniProt (SwissProt) Alternative ID(s) of Target Chain>


> <UniProt (TrEMBL) Submitted Name of Target Chain>


> <UniProt (TrEMBL) Entry Name of Target Chain>


> <UniProt (TrEMBL) Primary ID of Target Chain>
A0A024RB77

> <UniProt (TrEMBL) Secondary ID(s) of Target Chain>


> <UniProt (TrEMBL) Alternative ID(s) of Target Chain>


$$$$
ttt_mol_1

Vconf v2.1
 40 42  0  0  0  0  0  0  0  0999 V2000
    2.0390    2.7010    0.7270 N   0  0  0  0  0  0  0  0  0  0  0
    0.9900    2.0180    0.2120 C   0  0  0  0  0  0  0  0  0  0  0
    1.1700    1.6990   -1.1390 C   0  0  0  0  0  0  0  0  0  0  0
    2.6880    2.2680   -1.7550 S   0  0  0  0  0  0  0  0  0  0  0
    3.0090    2.9120   -0.1850 C   0  0  0  0  0  0  0  0  0  0  0
   -0.1980    1.6490    1.0020 C   0  0  0  0  0  0  0  0  0  0  0
    4.0730    3.5220    0.0610 O   0  0  0  0  0  0  0  0  0  0  0
    0.2710    1.0030   -1.9800 C   0  0  0  0  0  0  0  0  0  0  0
    0.6040    0.7480   -3.3230 C   0  0  0  0  0  0  0  0  0  0  0
   -0.3250    0.0650   -4.1190 C   0  0  0  0  0  0  0  0  0  0  0
   -1.5070   -0.3300   -3.5940 N   0  0  0  0  0  0  0  0  0  0  0
   -1.8290   -0.0890   -2.3020 C   0  0  0  0  0  0  0  0  0  0  0
   -0.9340    0.5710   -1.5240 N   0  0  0  0  0  0  0  0  0  0  0
   -3.0400   -0.5030   -1.8600 N   0  0  0  0  0  0  0  0  0  0  0
   -3.5250   -0.3300   -0.6060 C   0  0  0  0  0  0  0  0  0  0  0
   -5.3630    0.3880    0.8240 C   0  0  0  0  0  0  0  0  0  0  0
   -4.8170    0.2030   -0.4560 C   0  0  0  0  0  0  0  0  0  0  0
   -2.8020   -0.7070    0.5420 C   0  0  0  0  0  0  0  0  0  0  0
   -3.3410   -0.5280    1.8330 C   0  0  0  0  0  0  0  0  0  0  0
   -4.6330    0.0350    1.9760 C   0  0  0  0  0  0  0  0  0  0  0
    2.1200    3.1480    2.0810 C   0  0  0  0  0  0  0  0  0  0  0
   -2.6070   -0.9110    2.9030 N   0  3  0  0  0  0  0  0  0  0  0
   -3.0000   -1.7790    3.6370 O   0  5  0  0  0  0  0  0  0  0  0
   -5.2550    0.2800    3.2900 C   0  0  0  0  0  0  0  0  0  0  0
   -1.5280   -0.4250    3.1120 O   0  0  0  0  0  0  0  0  0  0  0
   -0.2860    0.5630    1.0260 H   0  0  0  0  0  0  0  0  0  0  0
   -0.1240    2.0090    2.0260 H   0  0  0  0  0  0  0  0  0  0  0
   -1.0920    2.0780    0.5490 H   0  0  0  0  0  0  0  0  0  0  0
    1.4940    1.0480   -3.7240 H   0  0  0  0  0  0  0  0  0  0  0
   -0.1110   -0.1340   -5.0960 H   0  0  0  0  0  0  0  0  0  0  0
   -3.6280   -0.9120   -2.5130 H   0  0  0  0  0  0  0  0  0  0  0
   -6.2980    0.7890    0.9160 H   0  0  0  0  0  0  0  0  0  0  0
   -5.3610    0.4670   -1.2780 H   0  0  0  0  0  0  0  0  0  0  0
   -1.8730   -1.1200    0.4400 H   0  0  0  0  0  0  0  0  0  0  0
    3.0560    3.6750    2.2760 H   0  0  0  0  0  0  0  0  0  0  0
    1.2930    3.8280    2.2930 H   0  0  0  0  0  0  0  0  0  0  0
    2.0620    2.2920    2.7540 H   0  0  0  0  0  0  0  0  0  0  0
   -4.5940    0.0140    4.1150 H   0  0  0  0  0  0  0  0  0  0  0
   -5.5040    1.3390    3.3830 H   0  0  0  0  0  0  0  0  0  0  0
   -6.1700   -0.3080    3.3750 H   0  0  0  0  0  0  0  0  0  0  0
  1  2  1  0  0  0  0
  1  5  1  0  0  0  0
  1 21  1  0  0  0  0
  2  3  2  0  0  0  0
  2  6  1  0  0  0  0
  3  4  1  0  0  0  0
  3  8  1  0  0  0  0
  4  5  1  0  0  0  0
  5  7  2  0  0  0  0
  6 26  1  0  0  0  0
  6 27  1  0  0  0  0
  6 28  1  0  0  0  0
  8  9  2  0  0  0  0
  8 13  1  0  0  0  0
  9 10  1  0  0  0  0
  9 29  1  0  0  0  0
 10 11  2  0  0  0  0
 10 30  1  0  0  0  0
 11 12  1  0  0  0  0
 12 13  2  0  0  0  0
 12 14  1  0  0  0  0
 14 15  1  0  0  0  0
 14 31  1  0  0  0  0
 15 17  2  0  0  0  0
 15 18  1  0  0  0  0
 16 17  1  0  0  0  0
 16 20  2  0  0  0  0
 16 32  1  0  0  0  0
 17 33  1  0  0  0  0
 18 19  2  0  0  0  0
 18 34  1  0  0  0  0
 19 20  1  0  0  0  0
 19 22  1  0  0  0  0
 20 24  1  0  0  0  0
 21 35  1  0  0  0  0
 21 36  1  0  0  0  0
 21 37  1  0  0  0  0
 22 23  1  0  0  0  0
 22 25  2  0  0  0  0
 24 38  1  0  0  0  0
 24 39  1  0  0  0  0
 24 40  1  0  0  0  0
M  END
> <From>
www.bindingDB.org

> <BindingDB Reactant_set_id>
153790

> <Ligand InChI>
InChI=1S/C16H15N5O3S/c1-9-4-5-11(8-13(9)21(23)24)18-15-17-7-6-12(19-15)14-10(2)20(3)16(22)25-14/h4-8H,1-3H3,(H,17,18,19)

> <Ligand InChI Key>
DMCVVJAYVRAPRW-UHFFFAOYSA-N

> <BindingDB MonomerID>
81440

> <BindingDB Ligand Name>
CDK Inhibitor, 13

> <Target Name Assigned by Curator or DataSource>
Cyclin-dependent kinase 2

> <Target Source Organism According to Curator or DataSource>
Homo sapiens

> <Ki (nM)>
 28

> <IC50 (nM)>


> <Kd (nM)>


> <EC50 (nM)>


> <kon (M-1-s-1)>


> <koff (s-1)>


> <pH>


> <Temp C>


> <Curation/DataSource>
Curated from the literature by BindingDB

> <Article DOI>
10.1016/j.chembiol.2010.07.016

> <PMID>
21035734

> <PubChem AID>


> <Patent Number>


> <Authors>
Wang, S; Griffiths, G; Midgley, CA; Barnett, AL; Cooper, M; Grabarek, J; Ingram, L; Jackson, W; Kontopidis, G; McClue, SJ; McInnes, C; McLachlan, J; Meades, C; Mezna, M; Stuart, I; Thomas, MP; Zheleva, DI; Lane, DP; Jackson, RC; Glover, DM; Blake, DG; Fischer, PM

> <Institution>
Cyclacel Limited

> <Link to Ligand in BindingDB>
http://www.bindingdb.org/bind/chemsearch/marvin/MolStructure.jsp?monomerid=81440

> <Link to Ligand-Target Pair in BindingDB>
http://www.bindingdb.org/jsp/dbsearch/PrimarySearch_ki.jsp?energyterm=kJ/mole&tag=pol&polymerid=796&target=Cyclin-dependent+kinase+2&column=ki&startPg=0&Increment=50&submit=Search

> <Link to Ligand-Target Pair in BindingDB>
http://www.bindingdb.org/jsp/dbsearch/PrimarySearch_ki.jsp?energyterm=kJ/mole&tag=r21&monomerid=81440&enzyme=Cyclin-dependent+kinase+2&column=ki&startPg=0&Increment=50&submit=Search

> <Ligand HET ID in PDB>


> <PDB ID(s) for Ligand-Target Complex>


> <PubChem CID>
10089699

> <PubChem SID>
131342014

> <ChEBI ID of Ligand>


> <ChEMBL ID of Ligand>


> <DrugBank ID of Ligand>


> <IUPHAR_GRAC ID of Ligand>


> <KEGG ID of Ligand>
C06058

> <ZINC ID of Ligand>
ZINC34190543

> <Number of Protein Chains in Target (bigger than 1 implies a multichain complex)>
1

> <BindingDB Target Chain Sequence>
MENFQKVEKIGEGTYGVVYKARNKLTGEVVALKKIRLDTETEGVPSTAIREISLLKELNHPNIVKLLDVIHTENKLYLVFEFLHQDLKKFMDASALTGIPLPLIKSYLFQLLQGLAFCHSHRVLHRDLKPQNLLINTEGAIKLADFGLARAFGVPVRTYTHEVVTLWYRAPEILLGCKYYSTAVDIWSLGCIFAEMVTRRALFPGDSEIDQLFRIFRTLGTPDEVVWPGVTSMPDYKPSFPKWARQDFSKVVPPLDEDGRSLLSQMLHYDPNKRISAKAALAHPFFQDVTKPVPHLRL

> <PDB ID(s) of Target Chain>
1CKP,1DI8,1DM2,1E1V,1E1X,1E9H,1F5Q,1FIN,1FQ1,1FVT,1FVV,1G5S,1GIH,1GY3,1GZ8,1H00,1H01,1H07,1H08,1H0V,1H0W,1H1P,1H1Q,1H1R,1H1S,1H24,1H25,1H26,1H27,1H28,1HCK,1HCL,1JST,1JSU,1JSV,1JVP,1KE5,1KE6,1KE7,1KE8,1KE9,1OGU,1OI9,1OIQ,1OIR,1OIU,1OIY,1OKV,1OKW,1OL1,1OL2,1P2A,1P5E,1PF8,1PKD,1PW2,1PXI,1PXJ,1PXK,1PXL,1PXM,1PXN,1PXO,1PXP,1PYE,1QMZ,1R78,1URC,1URW,1V1K,1VYW,1VYZ,1W0X,1W8C,1W98,1WCC,1Y8Y,1Y91,1YKR,2A0C,2A4L,2B52,2B53,2B54,2B55,2BHE,2BHH,2BKZ,2BPM,2BTR,2BTS,2C4G,2C5N,2C5O,2C5V,2C5X,2C5Y,2C68,2C69,2C6I,2C6K,2C6L,2C6M,2C6O,2C6T,2CCH,2CCI,2CJM,2CLX,2DUV,2EXM,2FVD,2G9X,2I40,2J9M,2JGZ,2R3F,2R3G,2R3H,2R3I,2R3J,2R3K,2R3L,2R3M,2R3N,2R3O,2R3P,2R3Q,2R3R,2R64,2UUE,2UZB,2UZD,2UZE,2UZL,2UZN,2UZO,2V0D,2V22,2VTA,2VTH,2VTI,2VTJ,2VTL,2VTM,2VTN,2VTO,2VTP,2VTQ,2VTR,2VTS,2VTT,2VU3,2VV9,2W05,2W06,2W17,2W1H,2WEV,2WFY,2WHB,2WIH,2WIP,2WMA,2WMB,2WPA,2WXV,2X1N,2XMY,2XNB,3BHT,3BHU,3BHV,3DDP,3DDQ,3DOG,3EID,3EJ1,3EOC,3EZR,3EZV,3F5X,3FZ1,3IG7,3IGG,3LE6,3LFN,3LFQ,3LFS,3MY5,3NS9,3PJ8,3PXF,3PXQ,3PXR,3PXY,3PXZ,3PY0,3PY1,3QHR,3QHW,3QL8,3QQF,3QQG,3QQH,3QQJ,3QQK,3QQL,3QRT,3QRU,3QTQ,3QTR,3QTS,3QTU,3QTW,3QTX,3QTZ,3QU0,3QWJ,3QWK,3QX2,3QX4,3QXO,3QXP,3QZF,3QZG,3QZH,3QZI,3R1Q,3R1S,3R1Y,3R28,3R6X,3R71,3R73,3R7E,3R7I,3R7U,3R7V,3R7Y,3R83,3R8L,3R8M,3R8P,3R8U,3R8V,3R8Z,3R9D,3R9H,3R9N,3R9O,3RAH,3RAI,3RAK,3RAL,3RJC,3RK5,3RK7,3RK9,3RKB,3RM6,3RM7,3RMF,3RNI,3ROY,3RPO,3RPR,3RPV,3RPY,3RZB,3S00,3S0O,3S1H,3S2P,3SQQ,3SW4,3SW7,3TI1,3TIY,3TIZ,3TNW,3ULI,3UNJ,3UNK,3WBL,4ACM,4BCK,4BCM,4BCN,4BCO,4BCP,4BCQ,4BGH,4BZD,4CFM,4CFN,4CFU,4CFV,4CFW,4CFX,4D1X,4D1Z,4EK3,4EK4,4EK5,4EK6,4EK8,4EOQ,4EOR,4EOS,4ERW,4EZ3,4EZ7,4FKG,4FKI,4FKJ,4FKL,4FKO,4FKP,4FKQ,4FKR,4FKS,4FKT,4FKU,4FKV,4FKW,4FX3,4GCJ,4I3Z,4II5,4KD1,4LYN,4NJ3,4RJ3,5A14,5AND,5ANE,5ANG,5ANI,5ANJ,5ANK,5ANO,5CYI,5D1J,5FP5,5FP6,5IEV,5IEX,5IEY,5IF1,5JQ5,5JQ8,5K4J,5L2W,5LMK,5MHQ,5NEV,5OO0,5OSJ,5UQ1,5UQ2,5UQ3,6ATH,6GUB,6GUC,6GUE,6GUF,6GUH,6GUK,6GVA,6INL,6JGM,6OQI,6P3W,6Q3B,6Q3C,6Q3F,6Q48,6Q49,6Q4A,6Q4B,6Q4C,6Q4D,6Q4E,6Q4F,6Q4H,6Q4J,6Q4K,6RIJ,6SG4,7ACK,7B5L,7B5R,7B7S,7E34,7KJS,7M2F,7NVQ

> <UniProt (SwissProt) Recommended Name of Target Chain>
Cyclin-dependent kinase 2

> <UniProt (SwissProt) Entry Name of Target Chain>
CDK2_HUMAN

> <UniProt (SwissProt) Primary ID of Target Chain>
P24941

> <UniProt (SwissProt) Secondary ID(s) of Target Chain>
A8K7C6,O75100

> <UniProt (SwissProt) Alternative ID(s) of Target Chain>


> <UniProt (TrEMBL) Submitted Name of Target Chain>


> <UniProt (TrEMBL) Entry Name of Target Chain>


> <UniProt (TrEMBL) Primary ID of Target Chain>
A0A024RB77

> <UniProt (TrEMBL) Secondary ID(s) of Target Chain>


> <UniProt (TrEMBL) Alternative ID(s) of Target Chain>


$$$$
BindingDB_50319620_mol_1

Vconf v2.0 Academic SN VC001-00000579
 49 51  0  0  0  0  0  0  0  0999 V2000
    3.6820  -11.3540    0.7050 C   0  0  0  0  0  0  0  0  0  0  0
    3.8760  -12.7410    0.7410 C   0  0  0  0  0  0  0  0  0  0  0
    5.1200  -13.2550    0.6070 N   0  0  0  0  0  0  0  0  0  0  0
    6.2030  -12.4640    0.4310 C   0  0  0  0  0  0  0  0  0  0  0
    6.0240  -11.1190    0.3940 N   0  0  0  0  0  0  0  0  0  0  0
    4.8070  -10.5300    0.5240 C   0  0  0  0  0  0  0  0  0  0  0
    7.4140  -13.0600    0.3230 N   0  0  0  0  0  0  0  0  0  0  0
    8.5990  -12.4200    0.1650 C   0  0  0  0  0  0  0  0  0  0  0
    8.8050  -11.4530   -0.8390 C   0  0  0  0  0  0  0  0  0  0  0
   10.0540  -10.8220   -0.9730 C   0  0  0  0  0  0  0  0  0  0  0
   11.1200  -11.1610   -0.1160 C   0  0  0  0  0  0  0  0  0  0  0
   10.9170  -12.1430    0.8740 C   0  0  0  0  0  0  0  0  0  0  0
    9.6670  -12.7710    1.0100 C   0  0  0  0  0  0  0  0  0  0  0
    4.6670   -9.1260    0.4930 C   0  0  0  0  0  0  0  0  0  0  0
    3.1170   -8.3740    0.6870 S   0  0  0  0  0  0  0  0  0  0  0
    3.9180   -6.8470    0.5410 C   0  0  0  0  0  0  0  0  0  0  0
    5.2410   -6.9180    0.3550 N   0  0  0  0  0  0  0  0  0  0  0
    5.6860   -8.1810    0.3230 C   0  0  0  0  0  0  0  0  0  0  0
    7.1110   -8.4660    0.1210 C   0  0  0  0  0  0  0  0  0  0  0
    3.2790   -5.6660    0.6090 N   0  0  0  0  0  0  0  0  0  0  0
    1.8800   -5.5780    0.8120 C   0  0  0  0  0  0  0  0  0  0  0
    1.4570   -4.1060    0.8470 C   0  0  0  0  0  0  0  0  0  0  0
   12.4320  -10.5020   -0.2450 C   0  0  0  0  0  0  0  0  0  0  0
   13.4210  -11.4470   -0.6260 N   0  0  0  0  0  0  0  0  0  0  0
   14.7170  -11.1160   -0.7960 C   0  0  0  0  0  0  0  0  0  0  0
   15.1080   -9.9410   -0.6170 O   0  0  0  0  0  0  0  0  0  0  0
   15.6740  -12.1460   -1.1950 C   0  0  0  0  0  0  0  0  0  0  0
    2.7420  -10.9680    0.8090 H   0  0  0  0  0  0  0  0  0  0  0
    3.0790  -13.3650    0.8720 H   0  0  0  0  0  0  0  0  0  0  0
    7.4380  -14.0240    0.4210 H   0  0  0  0  0  0  0  0  0  0  0
    8.0460  -11.2040   -1.4740 H   0  0  0  0  0  0  0  0  0  0  0
   10.1850  -10.1160   -1.6990 H   0  0  0  0  0  0  0  0  0  0  0
   11.6810  -12.4000    1.5010 H   0  0  0  0  0  0  0  0  0  0  0
    9.5370  -13.4800    1.7330 H   0  0  0  0  0  0  0  0  0  0  0
    7.6680   -7.5320    0.0360 H   0  0  0  0  0  0  0  0  0  0  0
    7.5010   -9.0340    0.9660 H   0  0  0  0  0  0  0  0  0  0  0
    7.2400   -9.0370   -0.7980 H   0  0  0  0  0  0  0  0  0  0  0
    3.7970   -4.8510    0.5190 H   0  0  0  0  0  0  0  0  0  0  0
    1.3530   -6.0800   -0.0020 H   0  0  0  0  0  0  0  0  0  0  0
    1.6100   -6.0470    1.7600 H   0  0  0  0  0  0  0  0  0  0  0
    0.3790   -4.0430    0.9990 H   0  0  0  0  0  0  0  0  0  0  0
    1.9650   -3.5950    1.6660 H   0  0  0  0  0  0  0  0  0  0  0
    1.7150   -3.6250   -0.0970 H   0  0  0  0  0  0  0  0  0  0  0
   12.3910   -9.7100   -0.9970 H   0  0  0  0  0  0  0  0  0  0  0
   12.7010  -10.0520    0.7130 H   0  0  0  0  0  0  0  0  0  0  0
   13.1550  -12.3680   -0.7730 H   0  0  0  0  0  0  0  0  0  0  0
   16.6700  -11.7130   -1.2890 H   0  0  0  0  0  0  0  0  0  0  0
   15.6950  -12.9350   -0.4430 H   0  0  0  0  0  0  0  0  0  0  0
   15.3750  -12.5690   -2.1550 H   0  0  0  0  0  0  0  0  0  0  0
  1  2  2  0  0  0  0
  1  6  1  0  0  0  0
  1 28  1  0  0  0  0
  2  3  1  0  0  0  0
  2 29  1  0  0  0  0
  3  4  2  0  0  0  0
  4  5  1  0  0  0  0
  4  7  1  0  0  0  0
  5  6  2  0  0  0  0
  6 14  1  0  0  0  0
  7  8  1  0  0  0  0
  7 30  1  0  0  0  0
  8  9  1  0  0  0  0
  8 13  2  0  0  0  0
  9 10  2  0  0  0  0
  9 31  1  0  0  0  0
 10 11  1  0  0  0  0
 10 32  1  0  0  0  0
 11 12  2  0  0  0  0
 11 23  1  0  0  0  0
 12 13  1  0  0  0  0
 12 33  1  0  0  0  0
 13 34  1  0  0  0  0
 14 15  1  0  0  0  0
 14 18  2  0  0  0  0
 15 16  1  0  0  0  0
 16 17  2  0  0  0  0
 16 20  1  0  0  0  0
 17 18  1  0  0  0  0
 18 19  1  0  0  0  0
 19 35  1  0  0  0  0
 19 36  1  0  0  0  0
 19 37  1  0  0  0  0
 20 21  1  0  0  0  0
 20 38  1  0  0  0  0
 21 22  1  0  0  0  0
 21 39  1  0  0  0  0
 21 40  1  0  0  0  0
 22 41  1  0  0  0  0
 22 42  1  0  0  0  0
 22 43  1  0  0  0  0
 23 24  1  0  0  0  0
 23 44  1  0  0  0  0
 23 45  1  0  0  0  0
 24 25  1  0  0  0  0
 24 46  1  0  0  0  0
 25 26  2  0  0  0  0
 25 27  1  0  0  0  0
 27 47  1  0  0  0  0
 27 48  1  0  0  0  0
 27 49  1  0  0  0  0
M  END
> <From>
www.bindingDB.org

> <BindingDB Reactant_set_id>
50579846

> <Ligand InChI>
InChI=1S/C19H22N6OS/c1-4-20-19-23-12(2)17(27-19)16-9-10-21-18(25-16)24-15-7-5-14(6-8-15)11-22-13(3)26/h5-10H,4,11H2,1-3H3,(H,20,23)(H,22,26)(H,21,24,25)

> <Ligand InChI Key>
VEJCMMPVTMQFME-UHFFFAOYSA-N

> <BindingDB MonomerID>
50319620

> <BindingDB Ligand Name>
CHEMBL1084715::N-(4-(4-(2-(Ethylamino)-4-methylthiazol-5-yl)pyrimidin-2-ylamino)benzyl)acetamide

> <Target Name Assigned by Curator or DataSource>
Cyclin-dependent kinase 2

> <Target Source Organism According to Curator or DataSource>
Homo sapiens

> <Ki (nM)>
 32

> <IC50 (nM)>


> <Kd (nM)>


> <EC50 (nM)>


> <kon (M-1-s-1)>


> <koff (s-1)>


> <pH>


> <Temp C>


> <Curation/DataSource>
ChEMBL

> <Article DOI>
10.1021/jm901913s

> <PMID>
20462263

> <PubChem AID>


> <Patent Number>


> <Authors>
Wang, S; Midgley, CA; Scaerou, F; Grabarek, JB; Griffiths, G; Jackson, W; Kontopidis, G; McClue, SJ; McInnes, C; Meades, C; Mezna, M; Plater, A; Stuart, I; Thomas, MP; Wood, G; Clarke, RG; Blake, DG; Zheleva, DI; Lane, DP; Jackson, RC; Glover, DM; Fischer, PM

> <Institution>
Cyclacel Ltd

> <Link to Ligand in BindingDB>
http://www.bindingdb.org/bind/chemsearch/marvin/MolStructure.jsp?monomerid=50319620

> <Link to Ligand-Target Pair in BindingDB>
http://www.bindingdb.org/jsp/dbsearch/PrimarySearch_ki.jsp?energyterm=kJ/mole&tag=pol&polymerid=796&target=Cyclin-dependent+kinase+2&column=ki&startPg=0&Increment=50&submit=Search

> <Link to Ligand-Target Pair in BindingDB>
http://www.bindingdb.org/jsp/dbsearch/PrimarySearch_ki.jsp?energyterm=kJ/mole&tag=r21&monomerid=50319620&enzyme=Cyclin-dependent+kinase+2&column=ki&startPg=0&Increment=50&submit=Search

> <Ligand HET ID in PDB>


> <PDB ID(s) for Ligand-Target Complex>


> <PubChem CID>
11646645

> <PubChem SID>
104153981

> <ChEBI ID of Ligand>


> <ChEMBL ID of Ligand>
CHEMBL1084715

> <DrugBank ID of Ligand>


> <IUPHAR_GRAC ID of Ligand>


> <KEGG ID of Ligand>


> <ZINC ID of Ligand>
ZINC35996783

> <Number of Protein Chains in Target (bigger than 1 implies a multichain complex)>
1

> <BindingDB Target Chain Sequence>
MENFQKVEKIGEGTYGVVYKARNKLTGEVVALKKIRLDTETEGVPSTAIREISLLKELNHPNIVKLLDVIHTENKLYLVFEFLHQDLKKFMDASALTGIPLPLIKSYLFQLLQGLAFCHSHRVLHRDLKPQNLLINTEGAIKLADFGLARAFGVPVRTYTHEVVTLWYRAPEILLGCKYYSTAVDIWSLGCIFAEMVTRRALFPGDSEIDQLFRIFRTLGTPDEVVWPGVTSMPDYKPSFPKWARQDFSKVVPPLDEDGRSLLSQMLHYDPNKRISAKAALAHPFFQDVTKPVPHLRL

> <PDB ID(s) of Target Chain>
1CKP,1DI8,1DM2,1E1V,1E1X,1E9H,1F5Q,1FIN,1FQ1,1FVT,1FVV,1G5S,1GIH,1GY3,1GZ8,1H00,1H01,1H07,1H08,1H0V,1H0W,1H1P,1H1Q,1H1R,1H1S,1H24,1H25,1H26,1H27,1H28,1HCK,1HCL,1JST,1JSU,1JSV,1JVP,1KE5,1KE6,1KE7,1KE8,1KE9,1OGU,1OI9,1OIQ,1OIR,1OIU,1OIY,1OKV,1OKW,1OL1,1OL2,1P2A,1P5E,1PF8,1PKD,1PW2,1PXI,1PXJ,1PXK,1PXL,1PXM,1PXN,1PXO,1PXP,1PYE,1QMZ,1R78,1URC,1URW,1V1K,1VYW,1VYZ,1W0X,1W8C,1W98,1WCC,1Y8Y,1Y91,1YKR,2A0C,2A4L,2B52,2B53,2B54,2B55,2BHE,2BHH,2BKZ,2BPM,2BTR,2BTS,2C4G,2C5N,2C5O,2C5V,2C5X,2C5Y,2C68,2C69,2C6I,2C6K,2C6L,2C6M,2C6O,2C6T,2CCH,2CCI,2CJM,2CLX,2DUV,2EXM,2FVD,2G9X,2I40,2J9M,2JGZ,2R3F,2R3G,2R3H,2R3I,2R3J,2R3K,2R3L,2R3M,2R3N,2R3O,2R3P,2R3Q,2R3R,2R64,2UUE,2UZB,2UZD,2UZE,2UZL,2UZN,2UZO,2V0D,2V22,2VTA,2VTH,2VTI,2VTJ,2VTL,2VTM,2VTN,2VTO,2VTP,2VTQ,2VTR,2VTS,2VTT,2VU3,2VV9,2W05,2W06,2W17,2W1H,2WEV,2WFY,2WHB,2WIH,2WIP,2WMA,2WMB,2WPA,2WXV,2X1N,2XMY,2XNB,3BHT,3BHU,3BHV,3DDP,3DDQ,3DOG,3EID,3EJ1,3EOC,3EZR,3EZV,3F5X,3FZ1,3IG7,3IGG,3LE6,3LFN,3LFQ,3LFS,3MY5,3NS9,3PJ8,3PXF,3PXQ,3PXR,3PXY,3PXZ,3PY0,3PY1,3QHR,3QHW,3QL8,3QQF,3QQG,3QQH,3QQJ,3QQK,3QQL,3QRT,3QRU,3QTQ,3QTR,3QTS,3QTU,3QTW,3QTX,3QTZ,3QU0,3QWJ,3QWK,3QX2,3QX4,3QXO,3QXP,3QZF,3QZG,3QZH,3QZI,3R1Q,3R1S,3R1Y,3R28,3R6X,3R71,3R73,3R7E,3R7I,3R7U,3R7V,3R7Y,3R83,3R8L,3R8M,3R8P,3R8U,3R8V,3R8Z,3R9D,3R9H,3R9N,3R9O,3RAH,3RAI,3RAK,3RAL,3RJC,3RK5,3RK7,3RK9,3RKB,3RM6,3RM7,3RMF,3RNI,3ROY,3RPO,3RPR,3RPV,3RPY,3RZB,3S00,3S0O,3S1H,3S2P,3SQQ,3SW4,3SW7,3TI1,3TIY,3TIZ,3TNW,3ULI,3UNJ,3UNK,3WBL,4ACM,4BCK,4BCM,4BCN,4BCO,4BCP,4BCQ,4BGH,4BZD,4CFM,4CFN,4CFU,4CFV,4CFW,4CFX,4D1X,4D1Z,4EK3,4EK4,4EK5,4EK6,4EK8,4EOQ,4EOR,4EOS,4ERW,4EZ3,4EZ7,4FKG,4FKI,4FKJ,4FKL,4FKO,4FKP,4FKQ,4FKR,4FKS,4FKT,4FKU,4FKV,4FKW,4FX3,4GCJ,4I3Z,4II5,4KD1,4LYN,4NJ3,4RJ3,5A14,5AND,5ANE,5ANG,5ANI,5ANJ,5ANK,5ANO,5CYI,5D1J,5FP5,5FP6,5IEV,5IEX,5IEY,5IF1,5JQ5,5JQ8,5K4J,5L2W,5LMK,5MHQ,5NEV,5OO0,5OSJ,5UQ1,5UQ2,5UQ3,6ATH,6GUB,6GUC,6GUE,6GUF,6GUH,6GUK,6GVA,6INL,6JGM,6OQI,6P3W,6Q3B,6Q3C,6Q3F,6Q48,6Q49,6Q4A,6Q4B,6Q4C,6Q4D,6Q4E,6Q4F,6Q4H,6Q4J,6Q4K,6RIJ,6SG4,7ACK,7B5L,7B5R,7B7S,7E34,7KJS,7M2F,7NVQ

> <UniProt (SwissProt) Recommended Name of Target Chain>
Cyclin-dependent kinase 2

> <UniProt (SwissProt) Entry Name of Target Chain>
CDK2_HUMAN

> <UniProt (SwissProt) Primary ID of Target Chain>
P24941

> <UniProt (SwissProt) Secondary ID(s) of Target Chain>
A8K7C6,O75100

> <UniProt (SwissProt) Alternative ID(s) of Target Chain>


> <UniProt (TrEMBL) Submitted Name of Target Chain>


> <UniProt (TrEMBL) Entry Name of Target Chain>


> <UniProt (TrEMBL) Primary ID of Target Chain>
A0A024RB77

> <UniProt (TrEMBL) Secondary ID(s) of Target Chain>


> <UniProt (TrEMBL) Alternative ID(s) of Target Chain>


$$$$
ttt_mol_1

Vconf v2.1
 44 46  0  0  0  0  0  0  0  0999 V2000
    2.0960    3.2260    0.4640 N   0  0  0  0  0  0  0  0  0  0  0
    1.4050    2.1270    0.1360 C   0  0  0  0  0  0  0  0  0  0  0
    2.1140    0.9430    0.3730 C   0  0  0  0  0  0  0  0  0  0  0
    3.6910    1.2550    1.0220 S   0  0  0  0  0  0  0  0  0  0  0
    3.3120    2.9420    0.9450 C   0  0  0  0  0  0  0  0  0  0  0
    0.0490    2.2320   -0.4140 C   0  0  0  0  0  0  0  0  0  0  0
    4.1590    3.9110    1.3320 N   0  0  0  0  0  0  0  0  0  0  0
    1.6610   -0.3740    0.1450 C   0  0  0  0  0  0  0  0  0  0  0
    2.4910   -1.4730    0.4330 C   0  0  0  0  0  0  0  0  0  0  0
    1.9870   -2.7600    0.2010 C   0  0  0  0  0  0  0  0  0  0  0
    0.7350   -2.9210   -0.2850 N   0  0  0  0  0  0  0  0  0  0  0
   -0.0620   -1.8650   -0.5650 C   0  0  0  0  0  0  0  0  0  0  0
    0.4180   -0.6140   -0.3450 N   0  0  0  0  0  0  0  0  0  0  0
   -1.3080   -2.1110   -1.0320 N   0  0  0  0  0  0  0  0  0  0  0
   -2.2310   -1.1700   -1.3470 C   0  0  0  0  0  0  0  0  0  0  0
   -4.5020   -0.3190   -1.0860 C   0  0  0  0  0  0  0  0  0  0  0
   -3.5110   -1.2630   -0.7690 C   0  0  0  0  0  0  0  0  0  0  0
   -1.9620   -0.1360   -2.2680 C   0  0  0  0  0  0  0  0  0  0  0
   -2.9530    0.8090   -2.5930 C   0  0  0  0  0  0  0  0  0  0  0
   -4.2220    0.7160   -1.9940 C   0  0  0  0  0  0  0  0  0  0  0
   -2.6100    2.0830   -3.7240 S   0  0  0  0  0  0  0  0  0  0  0
   -1.4220    1.6160   -4.6720 O   0  0  0  0  0  0  0  0  0  0  0
   -3.9830    2.7060   -4.2300 O   0  0  0  0  0  0  0  0  0  0  0
    5.4480    3.6260    1.8460 C   0  0  0  0  0  0  0  0  0  0  0
   -1.8840    3.2860   -2.8000 N   0  0  0  0  0  0  0  0  0  0  0
   -2.6490    4.1280   -1.9630 C   0  0  0  0  0  0  0  0  0  0  0
   -0.6570    1.7040    0.2290 H   0  0  0  0  0  0  0  0  0  0  0
   -0.2450    3.2800   -0.4750 H   0  0  0  0  0  0  0  0  0  0  0
    0.0280    1.7990   -1.4140 H   0  0  0  0  0  0  0  0  0  0  0
    3.8750    4.8350    1.2560 H   0  0  0  0  0  0  0  0  0  0  0
    3.4340   -1.3540    0.8040 H   0  0  0  0  0  0  0  0  0  0  0
    2.5640   -3.5780    0.4020 H   0  0  0  0  0  0  0  0  0  0  0
   -1.5770   -3.0410   -1.0990 H   0  0  0  0  0  0  0  0  0  0  0
   -5.4260   -0.3860   -0.6570 H   0  0  0  0  0  0  0  0  0  0  0
   -3.7220   -2.0130   -0.1100 H   0  0  0  0  0  0  0  0  0  0  0
   -1.0430   -0.0710   -2.7060 H   0  0  0  0  0  0  0  0  0  0  0
   -4.9450    1.3990   -2.2220 H   0  0  0  0  0  0  0  0  0  0  0
    5.9490    4.5630    2.0890 H   0  0  0  0  0  0  0  0  0  0  0
    5.3670    3.0220    2.7510 H   0  0  0  0  0  0  0  0  0  0  0
    6.0400    3.0890    1.1020 H   0  0  0  0  0  0  0  0  0  0  0
   -0.9220    3.4000   -2.8490 H   0  0  0  0  0  0  0  0  0  0  0
   -1.9900    4.8380   -1.4620 H   0  0  0  0  0  0  0  0  0  0  0
   -3.3790    4.6730   -2.5610 H   0  0  0  0  0  0  0  0  0  0  0
   -3.1680    3.5290   -1.2150 H   0  0  0  0  0  0  0  0  0  0  0
  1  2  1  0  0  0  0
  1  5  2  0  0  0  0
  2  3  2  0  0  0  0
  2  6  1  0  0  0  0
  3  4  1  0  0  0  0
  3  8  1  0  0  0  0
  4  5  1  0  0  0  0
  5  7  1  0  0  0  0
  6 27  1  0  0  0  0
  6 28  1  0  0  0  0
  6 29  1  0  0  0  0
  7 24  1  0  0  0  0
  7 30  1  0  0  0  0
  8  9  2  0  0  0  0
  8 13  1  0  0  0  0
  9 10  1  0  0  0  0
  9 31  1  0  0  0  0
 10 11  2  0  0  0  0
 10 32  1  0  0  0  0
 11 12  1  0  0  0  0
 12 13  2  0  0  0  0
 12 14  1  0  0  0  0
 14 15  1  0  0  0  0
 14 33  1  0  0  0  0
 15 17  2  0  0  0  0
 15 18  1  0  0  0  0
 16 17  1  0  0  0  0
 16 20  2  0  0  0  0
 16 34  1  0  0  0  0
 17 35  1  0  0  0  0
 18 19  2  0  0  0  0
 18 36  1  0  0  0  0
 19 20  1  0  0  0  0
 19 21  1  0  0  0  0
 20 37  1  0  0  0  0
 21 22  2  0  0  0  0
 21 23  2  0  0  0  0
 21 25  1  0  0  0  0
 24 38  1  0  0  0  0
 24 39  1  0  0  0  0
 24 40  1  0  0  0  0
 25 26  1  0  0  0  0
 25 41  1  0  0  0  0
 26 42  1  0  0  0  0
 26 43  1  0  0  0  0
 26 44  1  0  0  0  0
M  END
> <From>
www.bindingDB.org

> <BindingDB Reactant_set_id>
153781

> <Ligand InChI>
InChI=1S/C16H18N6O2S2/c1-10-14(25-16(17-2)20-10)13-7-8-19-15(22-13)21-11-5-4-6-12(9-11)26(23,24)18-3/h4-9,18H,1-3H3,(H,17,20)(H,19,21,22)

> <Ligand InChI Key>
YKEMTVGDNWRGJT-UHFFFAOYSA-N

> <BindingDB MonomerID>
81431

> <BindingDB Ligand Name>
CDK Inhibitor, 4

> <Target Name Assigned by Curator or DataSource>
Cyclin-dependent kinase 2

> <Target Source Organism According to Curator or DataSource>
Homo sapiens

> <Ki (nM)>
 33

> <IC50 (nM)>


> <Kd (nM)>


> <EC50 (nM)>


> <kon (M-1-s-1)>


> <koff (s-1)>


> <pH>


> <Temp C>


> <Curation/DataSource>
Curated from the literature by BindingDB

> <Article DOI>
10.1016/j.chembiol.2010.07.016

> <PMID>
21035734

> <PubChem AID>


> <Patent Number>


> <Authors>
Wang, S; Griffiths, G; Midgley, CA; Barnett, AL; Cooper, M; Grabarek, J; Ingram, L; Jackson, W; Kontopidis, G; McClue, SJ; McInnes, C; McLachlan, J; Meades, C; Mezna, M; Stuart, I; Thomas, MP; Zheleva, DI; Lane, DP; Jackson, RC; Glover, DM; Blake, DG; Fischer, PM

> <Institution>
Cyclacel Limited

> <Link to Ligand in BindingDB>
http://www.bindingdb.org/bind/chemsearch/marvin/MolStructure.jsp?monomerid=81431

> <Link to Ligand-Target Pair in BindingDB>
http://www.bindingdb.org/jsp/dbsearch/PrimarySearch_ki.jsp?energyterm=kJ/mole&tag=pol&polymerid=796&target=Cyclin-dependent+kinase+2&column=ki&startPg=0&Increment=50&submit=Search

> <Link to Ligand-Target Pair in BindingDB>
http://www.bindingdb.org/jsp/dbsearch/PrimarySearch_ki.jsp?energyterm=kJ/mole&tag=r21&monomerid=81431&enzyme=Cyclin-dependent+kinase+2&column=ki&startPg=0&Increment=50&submit=Search

> <Ligand HET ID in PDB>


> <PDB ID(s) for Ligand-Target Complex>


> <PubChem CID>
11560195

> <PubChem SID>
131342005

> <ChEBI ID of Ligand>


> <ChEMBL ID of Ligand>


> <DrugBank ID of Ligand>


> <IUPHAR_GRAC ID of Ligand>


> <KEGG ID of Ligand>


> <ZINC ID of Ligand>
ZINC35816054

> <Number of Protein Chains in Target (bigger than 1 implies a multichain complex)>
1

> <BindingDB Target Chain Sequence>
MENFQKVEKIGEGTYGVVYKARNKLTGEVVALKKIRLDTETEGVPSTAIREISLLKELNHPNIVKLLDVIHTENKLYLVFEFLHQDLKKFMDASALTGIPLPLIKSYLFQLLQGLAFCHSHRVLHRDLKPQNLLINTEGAIKLADFGLARAFGVPVRTYTHEVVTLWYRAPEILLGCKYYSTAVDIWSLGCIFAEMVTRRALFPGDSEIDQLFRIFRTLGTPDEVVWPGVTSMPDYKPSFPKWARQDFSKVVPPLDEDGRSLLSQMLHYDPNKRISAKAALAHPFFQDVTKPVPHLRL

> <PDB ID(s) of Target Chain>
1CKP,1DI8,1DM2,1E1V,1E1X,1E9H,1F5Q,1FIN,1FQ1,1FVT,1FVV,1G5S,1GIH,1GY3,1GZ8,1H00,1H01,1H07,1H08,1H0V,1H0W,1H1P,1H1Q,1H1R,1H1S,1H24,1H25,1H26,1H27,1H28,1HCK,1HCL,1JST,1JSU,1JSV,1JVP,1KE5,1KE6,1KE7,1KE8,1KE9,1OGU,1OI9,1OIQ,1OIR,1OIU,1OIY,1OKV,1OKW,1OL1,1OL2,1P2A,1P5E,1PF8,1PKD,1PW2,1PXI,1PXJ,1PXK,1PXL,1PXM,1PXN,1PXO,1PXP,1PYE,1QMZ,1R78,1URC,1URW,1V1K,1VYW,1VYZ,1W0X,1W8C,1W98,1WCC,1Y8Y,1Y91,1YKR,2A0C,2A4L,2B52,2B53,2B54,2B55,2BHE,2BHH,2BKZ,2BPM,2BTR,2BTS,2C4G,2C5N,2C5O,2C5V,2C5X,2C5Y,2C68,2C69,2C6I,2C6K,2C6L,2C6M,2C6O,2C6T,2CCH,2CCI,2CJM,2CLX,2DUV,2EXM,2FVD,2G9X,2I40,2J9M,2JGZ,2R3F,2R3G,2R3H,2R3I,2R3J,2R3K,2R3L,2R3M,2R3N,2R3O,2R3P,2R3Q,2R3R,2R64,2UUE,2UZB,2UZD,2UZE,2UZL,2UZN,2UZO,2V0D,2V22,2VTA,2VTH,2VTI,2VTJ,2VTL,2VTM,2VTN,2VTO,2VTP,2VTQ,2VTR,2VTS,2VTT,2VU3,2VV9,2W05,2W06,2W17,2W1H,2WEV,2WFY,2WHB,2WIH,2WIP,2WMA,2WMB,2WPA,2WXV,2X1N,2XMY,2XNB,3BHT,3BHU,3BHV,3DDP,3DDQ,3DOG,3EID,3EJ1,3EOC,3EZR,3EZV,3F5X,3FZ1,3IG7,3IGG,3LE6,3LFN,3LFQ,3LFS,3MY5,3NS9,3PJ8,3PXF,3PXQ,3PXR,3PXY,3PXZ,3PY0,3PY1,3QHR,3QHW,3QL8,3QQF,3QQG,3QQH,3QQJ,3QQK,3QQL,3QRT,3QRU,3QTQ,3QTR,3QTS,3QTU,3QTW,3QTX,3QTZ,3QU0,3QWJ,3QWK,3QX2,3QX4,3QXO,3QXP,3QZF,3QZG,3QZH,3QZI,3R1Q,3R1S,3R1Y,3R28,3R6X,3R71,3R73,3R7E,3R7I,3R7U,3R7V,3R7Y,3R83,3R8L,3R8M,3R8P,3R8U,3R8V,3R8Z,3R9D,3R9H,3R9N,3R9O,3RAH,3RAI,3RAK,3RAL,3RJC,3RK5,3RK7,3RK9,3RKB,3RM6,3RM7,3RMF,3RNI,3ROY,3RPO,3RPR,3RPV,3RPY,3RZB,3S00,3S0O,3S1H,3S2P,3SQQ,3SW4,3SW7,3TI1,3TIY,3TIZ,3TNW,3ULI,3UNJ,3UNK,3WBL,4ACM,4BCK,4BCM,4BCN,4BCO,4BCP,4BCQ,4BGH,4BZD,4CFM,4CFN,4CFU,4CFV,4CFW,4CFX,4D1X,4D1Z,4EK3,4EK4,4EK5,4EK6,4EK8,4EOQ,4EOR,4EOS,4ERW,4EZ3,4EZ7,4FKG,4FKI,4FKJ,4FKL,4FKO,4FKP,4FKQ,4FKR,4FKS,4FKT,4FKU,4FKV,4FKW,4FX3,4GCJ,4I3Z,4II5,4KD1,4LYN,4NJ3,4RJ3,5A14,5AND,5ANE,5ANG,5ANI,5ANJ,5ANK,5ANO,5CYI,5D1J,5FP5,5FP6,5IEV,5IEX,5IEY,5IF1,5JQ5,5JQ8,5K4J,5L2W,5LMK,5MHQ,5NEV,5OO0,5OSJ,5UQ1,5UQ2,5UQ3,6ATH,6GUB,6GUC,6GUE,6GUF,6GUH,6GUK,6GVA,6INL,6JGM,6OQI,6P3W,6Q3B,6Q3C,6Q3F,6Q48,6Q49,6Q4A,6Q4B,6Q4C,6Q4D,6Q4E,6Q4F,6Q4H,6Q4J,6Q4K,6RIJ,6SG4,7ACK,7B5L,7B5R,7B7S,7E34,7KJS,7M2F,7NVQ

> <UniProt (SwissProt) Recommended Name of Target Chain>
Cyclin-dependent kinase 2

> <UniProt (SwissProt) Entry Name of Target Chain>
CDK2_HUMAN

> <UniProt (SwissProt) Primary ID of Target Chain>
P24941

> <UniProt (SwissProt) Secondary ID(s) of Target Chain>
A8K7C6,O75100

> <UniProt (SwissProt) Alternative ID(s) of Target Chain>


> <UniProt (TrEMBL) Submitted Name of Target Chain>


> <UniProt (TrEMBL) Entry Name of Target Chain>


> <UniProt (TrEMBL) Primary ID of Target Chain>
A0A024RB77

> <UniProt (TrEMBL) Secondary ID(s) of Target Chain>


> <UniProt (TrEMBL) Alternative ID(s) of Target Chain>


$$$$
BMS-387032

Vconf v2.0 Academic SN VC001-00000579
 49 51  0  0  0  0  0  0  0  0999 V2000
   -2.8780    2.3340    0.6240 C   0  0  0  0  0  0  0  0  0  0  0
   -3.0360    0.9540    0.6160 C   0  0  0  0  0  0  0  0  0  0  0
   -0.9420    1.3860    0.4640 C   0  0  0  0  0  0  0  0  0  0  0
   -1.5560    2.5900    0.5270 O   0  0  0  0  0  0  0  0  0  0  0
   -1.8300    0.3800    0.5160 N   0  0  0  0  0  0  0  0  0  0  0
   -3.9520    3.3480    0.7170 C   0  0  0  0  0  0  0  0  0  0  0
   -4.7390    3.1780    2.0330 C   0  0  0  0  0  0  0  0  0  0  0
   -3.3520    4.7700    0.6910 C   0  0  0  0  0  0  0  0  0  0  0
   -4.9230    3.2120   -0.4740 C   0  0  0  0  0  0  0  0  0  0  0
    0.5040    1.2130    0.3470 C   0  0  0  0  0  0  0  0  0  0  0
    1.3140    1.9510    1.7780 S   0  0  0  0  0  0  0  0  0  0  0
    2.9920    1.6830    1.4450 C   0  0  0  0  0  0  0  0  0  0  0
    5.1760    1.1560    0.6530 C   0  0  0  0  0  0  0  0  0  0  0
    4.0060    2.0620    2.3110 C   0  0  0  0  0  0  0  0  0  0  0
    3.5820    0.9210    0.0080 S   0  0  0  0  0  0  0  0  0  0  0
    5.2250    1.7580    1.8510 N   0  0  0  0  0  0  0  0  0  0  0
    6.3170    0.7800    0.0400 N   0  0  0  0  0  0  0  0  0  0  0
    6.3960    0.1730   -1.1660 C   0  0  0  0  0  0  0  0  0  0  0
    5.3850   -0.1020   -1.8510 O   0  0  0  0  0  0  0  0  0  0  0
    7.7220   -0.1790   -1.7010 C   0  0  0  0  0  0  0  0  0  0  0
    8.6000    1.0740   -1.8880 C   0  0  0  0  0  0  0  0  0  0  0
    8.4470   -1.1790   -0.7790 C   0  0  0  0  0  0  0  0  0  0  0
    9.8360   -1.5000   -1.3510 C   0  0  0  0  0  0  0  0  0  0  0
    9.9820    0.6660   -2.4170 C   0  0  0  0  0  0  0  0  0  0  0
   10.6300   -0.2690   -1.4840 N   0  0  0  0  0  0  0  0  0  0  0
   -3.9250    0.4570    0.6750 H   0  0  0  0  0  0  0  0  0  0  0
   -5.5090    3.9470    2.1020 H   0  0  0  0  0  0  0  0  0  0  0
   -5.2190    2.1990    2.0650 H   0  0  0  0  0  0  0  0  0  0  0
   -4.0670    3.2750    2.8880 H   0  0  0  0  0  0  0  0  0  0  0
   -4.1520    5.5090    0.7530 H   0  0  0  0  0  0  0  0  0  0  0
   -2.6770    4.9100    1.5370 H   0  0  0  0  0  0  0  0  0  0  0
   -2.7990    4.9290   -0.2360 H   0  0  0  0  0  0  0  0  0  0  0
   -5.6890    3.9860   -0.4140 H   0  0  0  0  0  0  0  0  0  0  0
   -4.3830    3.3250   -1.4150 H   0  0  0  0  0  0  0  0  0  0  0
   -5.4110    2.2360   -0.4570 H   0  0  0  0  0  0  0  0  0  0  0
    0.7450    0.1500    0.3000 H   0  0  0  0  0  0  0  0  0  0  0
    0.8500    1.7030   -0.5630 H   0  0  0  0  0  0  0  0  0  0  0
    3.8400    2.5250    3.2050 H   0  0  0  0  0  0  0  0  0  0  0
    7.1500    0.9610    0.5020 H   0  0  0  0  0  0  0  0  0  0  0
    7.5890   -0.6500   -2.6770 H   0  0  0  0  0  0  0  0  0  0  0
    8.7260    1.5920   -0.9350 H   0  0  0  0  0  0  0  0  0  0  0
    8.1300    1.7520   -2.6030 H   0  0  0  0  0  0  0  0  0  0  0
    7.8690   -2.1020   -0.7070 H   0  0  0  0  0  0  0  0  0  0  0
    8.5670   -0.7530    0.2190 H   0  0  0  0  0  0  0  0  0  0  0
   10.3500   -2.1820   -0.6740 H   0  0  0  0  0  0  0  0  0  0  0
    9.7300   -1.9820   -2.3240 H   0  0  0  0  0  0  0  0  0  0  0
    9.8770    0.1990   -3.3980 H   0  0  0  0  0  0  0  0  0  0  0
   10.6030    1.5560   -2.5150 H   0  0  0  0  0  0  0  0  0  0  0
   11.5250   -0.5350   -1.9000 H   0  0  0  0  0  0  0  0  0  0  0
  1  2  2  0  0  0  0
  1  4  1  0  0  0  0
  1  6  1  0  0  0  0
  2  5  1  0  0  0  0
  2 26  1  0  0  0  0
  3  4  1  0  0  0  0
  3  5  2  0  0  0  0
  3 10  1  0  0  0  0
  6  7  1  0  0  0  0
  6  8  1  0  0  0  0
  6  9  1  0  0  0  0
  7 27  1  0  0  0  0
  7 28  1  0  0  0  0
  7 29  1  0  0  0  0
  8 30  1  0  0  0  0
  8 31  1  0  0  0  0
  8 32  1  0  0  0  0
  9 33  1  0  0  0  0
  9 34  1  0  0  0  0
  9 35  1  0  0  0  0
 10 11  1  0  0  0  0
 10 36  1  0  0  0  0
 10 37  1  0  0  0  0
 11 12  1  0  0  0  0
 12 14  2  0  0  0  0
 12 15  1  0  0  0  0
 13 15  1  0  0  0  0
 13 16  2  0  0  0  0
 13 17  1  0  0  0  0
 14 16  1  0  0  0  0
 14 38  1  0  0  0  0
 17 18  1  0  0  0  0
 17 39  1  0  0  0  0
 18 19  2  0  0  0  0
 18 20  1  0  0  0  0
 20 21  1  0  0  0  0
 20 22  1  0  0  0  0
 20 40  1  0  0  0  0
 21 24  1  0  0  0  0
 21 41  1  0  0  0  0
 21 42  1  0  0  0  0
 22 23  1  0  0  0  0
 22 43  1  0  0  0  0
 22 44  1  0  0  0  0
 23 25  1  0  0  0  0
 23 45  1  0  0  0  0
 23 46  1  0  0  0  0
 24 25  1  0  0  0  0
 24 47  1  0  0  0  0
 24 48  1  0  0  0  0
 25 49  1  0  0  0  0
M  END
> <From>
www.bindingDB.org

> <BindingDB Reactant_set_id>
51041256

> <Ligand InChI>
InChI=1S/C17H24N4O2S2/c1-17(2,3)12-8-19-13(23-12)10-24-14-9-20-16(25-14)21-15(22)11-4-6-18-7-5-11/h8-9,11,18H,4-7,10H2,1-3H3,(H,20,21,22)

> <Ligand InChI Key>
OUSFTKFNBAZUKL-UHFFFAOYSA-N

> <BindingDB MonomerID>
5931

> <BindingDB Ligand Name>
BMS-387072::CHEMBL296468::N-(5-{[(5-tert-butyl-1,3-oxazol-2-yl)methyl]sulfanyl}-1,3-thiazol-2-yl)piperidine-4-carboxamide::N-[5-[[[5-(1,1-Dimethylethyl)-2-oxazolyl]methyl]thio]-2-thiazolyl]-4-piperidinecarboxamide::cid_3025986

> <Target Name Assigned by Curator or DataSource>
Cyclin-dependent kinase 2

> <Target Source Organism According to Curator or DataSource>
Homo sapiens

> <Ki (nM)>
 38

> <IC50 (nM)>


> <Kd (nM)>


> <EC50 (nM)>


> <kon (M-1-s-1)>


> <koff (s-1)>


> <pH>


> <Temp C>


> <Curation/DataSource>
ChEMBL

> <Article DOI>
10.1021/jm301495v

> <PMID>
23252711

> <PubChem AID>


> <Patent Number>


> <Authors>
Hole, AJ; Baumli, S; Shao, H; Shi, S; Huang, S; Pepper, C; Fischer, PM; Wang, S; Endicott, JA; Noble, ME

> <Institution>
University of Oxford

> <Link to Ligand in BindingDB>
http://www.bindingdb.org/bind/chemsearch/marvin/MolStructure.jsp?monomerid=5931

> <Link to Ligand-Target Pair in BindingDB>
http://www.bindingdb.org/jsp/dbsearch/PrimarySearch_ki.jsp?energyterm=kJ/mole&tag=pol&polymerid=796&target=Cyclin-dependent+kinase+2&column=ki&startPg=0&Increment=50&submit=Search

> <Link to Ligand-Target Pair in BindingDB>
http://www.bindingdb.org/jsp/dbsearch/PrimarySearch_ki.jsp?energyterm=kJ/mole&tag=r21&monomerid=5931&enzyme=Cyclin-dependent+kinase+2&column=ki&startPg=0&Increment=50&submit=Search

> <Ligand HET ID in PDB>
56H

> <PDB ID(s) for Ligand-Target Complex>
5D1J

> <PubChem CID>
3025986

> <PubChem SID>
8035540

> <ChEBI ID of Ligand>


> <ChEMBL ID of Ligand>
CHEMBL296468

> <DrugBank ID of Ligand>


> <IUPHAR_GRAC ID of Ligand>
5670

> <KEGG ID of Ligand>


> <ZINC ID of Ligand>
ZINC03816409

> <Number of Protein Chains in Target (bigger than 1 implies a multichain complex)>
1

> <BindingDB Target Chain Sequence>
MENFQKVEKIGEGTYGVVYKARNKLTGEVVALKKIRLDTETEGVPSTAIREISLLKELNHPNIVKLLDVIHTENKLYLVFEFLHQDLKKFMDASALTGIPLPLIKSYLFQLLQGLAFCHSHRVLHRDLKPQNLLINTEGAIKLADFGLARAFGVPVRTYTHEVVTLWYRAPEILLGCKYYSTAVDIWSLGCIFAEMVTRRALFPGDSEIDQLFRIFRTLGTPDEVVWPGVTSMPDYKPSFPKWARQDFSKVVPPLDEDGRSLLSQMLHYDPNKRISAKAALAHPFFQDVTKPVPHLRL

> <PDB ID(s) of Target Chain>
1CKP,1DI8,1DM2,1E1V,1E1X,1E9H,1F5Q,1FIN,1FQ1,1FVT,1FVV,1G5S,1GIH,1GY3,1GZ8,1H00,1H01,1H07,1H08,1H0V,1H0W,1H1P,1H1Q,1H1R,1H1S,1H24,1H25,1H26,1H27,1H28,1HCK,1HCL,1JST,1JSU,1JSV,1JVP,1KE5,1KE6,1KE7,1KE8,1KE9,1OGU,1OI9,1OIQ,1OIR,1OIU,1OIY,1OKV,1OKW,1OL1,1OL2,1P2A,1P5E,1PF8,1PKD,1PW2,1PXI,1PXJ,1PXK,1PXL,1PXM,1PXN,1PXO,1PXP,1PYE,1QMZ,1R78,1URC,1URW,1V1K,1VYW,1VYZ,1W0X,1W8C,1W98,1WCC,1Y8Y,1Y91,1YKR,2A0C,2A4L,2B52,2B53,2B54,2B55,2BHE,2BHH,2BKZ,2BPM,2BTR,2BTS,2C4G,2C5N,2C5O,2C5V,2C5X,2C5Y,2C68,2C69,2C6I,2C6K,2C6L,2C6M,2C6O,2C6T,2CCH,2CCI,2CJM,2CLX,2DUV,2EXM,2FVD,2G9X,2I40,2J9M,2JGZ,2R3F,2R3G,2R3H,2R3I,2R3J,2R3K,2R3L,2R3M,2R3N,2R3O,2R3P,2R3Q,2R3R,2R64,2UUE,2UZB,2UZD,2UZE,2UZL,2UZN,2UZO,2V0D,2V22,2VTA,2VTH,2VTI,2VTJ,2VTL,2VTM,2VTN,2VTO,2VTP,2VTQ,2VTR,2VTS,2VTT,2VU3,2VV9,2W05,2W06,2W17,2W1H,2WEV,2WFY,2WHB,2WIH,2WIP,2WMA,2WMB,2WPA,2WXV,2X1N,2XMY,2XNB,3BHT,3BHU,3BHV,3DDP,3DDQ,3DOG,3EID,3EJ1,3EOC,3EZR,3EZV,3F5X,3FZ1,3IG7,3IGG,3LE6,3LFN,3LFQ,3LFS,3MY5,3NS9,3PJ8,3PXF,3PXQ,3PXR,3PXY,3PXZ,3PY0,3PY1,3QHR,3QHW,3QL8,3QQF,3QQG,3QQH,3QQJ,3QQK,3QQL,3QRT,3QRU,3QTQ,3QTR,3QTS,3QTU,3QTW,3QTX,3QTZ,3QU0,3QWJ,3QWK,3QX2,3QX4,3QXO,3QXP,3QZF,3QZG,3QZH,3QZI,3R1Q,3R1S,3R1Y,3R28,3R6X,3R71,3R73,3R7E,3R7I,3R7U,3R7V,3R7Y,3R83,3R8L,3R8M,3R8P,3R8U,3R8V,3R8Z,3R9D,3R9H,3R9N,3R9O,3RAH,3RAI,3RAK,3RAL,3RJC,3RK5,3RK7,3RK9,3RKB,3RM6,3RM7,3RMF,3RNI,3ROY,3RPO,3RPR,3RPV,3RPY,3RZB,3S00,3S0O,3S1H,3S2P,3SQQ,3SW4,3SW7,3TI1,3TIY,3TIZ,3TNW,3ULI,3UNJ,3UNK,3WBL,4ACM,4BCK,4BCM,4BCN,4BCO,4BCP,4BCQ,4BGH,4BZD,4CFM,4CFN,4CFU,4CFV,4CFW,4CFX,4D1X,4D1Z,4EK3,4EK4,4EK5,4EK6,4EK8,4EOQ,4EOR,4EOS,4ERW,4EZ3,4EZ7,4FKG,4FKI,4FKJ,4FKL,4FKO,4FKP,4FKQ,4FKR,4FKS,4FKT,4FKU,4FKV,4FKW,4FX3,4GCJ,4I3Z,4II5,4KD1,4LYN,4NJ3,4RJ3,5A14,5AND,5ANE,5ANG,5ANI,5ANJ,5ANK,5ANO,5CYI,5D1J,5FP5,5FP6,5IEV,5IEX,5IEY,5IF1,5JQ5,5JQ8,5K4J,5L2W,5LMK,5MHQ,5NEV,5OO0,5OSJ,5UQ1,5UQ2,5UQ3,6ATH,6GUB,6GUC,6GUE,6GUF,6GUH,6GUK,6GVA,6INL,6JGM,6OQI,6P3W,6Q3B,6Q3C,6Q3F,6Q48,6Q49,6Q4A,6Q4B,6Q4C,6Q4D,6Q4E,6Q4F,6Q4H,6Q4J,6Q4K,6RIJ,6SG4,7ACK,7B5L,7B5R,7B7S,7E34,7KJS,7M2F,7NVQ

> <UniProt (SwissProt) Recommended Name of Target Chain>
Cyclin-dependent kinase 2

> <UniProt (SwissProt) Entry Name of Target Chain>
CDK2_HUMAN

> <UniProt (SwissProt) Primary ID of Target Chain>
P24941

> <UniProt (SwissProt) Secondary ID(s) of Target Chain>
A8K7C6,O75100

> <UniProt (SwissProt) Alternative ID(s) of Target Chain>


> <UniProt (TrEMBL) Submitted Name of Target Chain>


> <UniProt (TrEMBL) Entry Name of Target Chain>


> <UniProt (TrEMBL) Primary ID of Target Chain>
A0A024RB77

> <UniProt (TrEMBL) Secondary ID(s) of Target Chain>


> <UniProt (TrEMBL) Alternative ID(s) of Target Chain>


$$$$
Flavopiridol

Vconf v2.0 Academic SN VC001-00000579
 48 51  0  0  0  0  0  0  0  0999 V2000
    0.4340    2.5550    0.5140 C   0  0  0  0  0  0  0  0  0  0  0
    1.5840    1.8910    0.7570 C   0  0  0  0  0  0  0  0  0  0  0
    2.5380    2.4450    1.5200 C   0  0  0  0  0  0  0  0  0  0  0
    0.2100    3.8280    1.0290 C   0  0  0  0  0  0  0  0  0  0  0
    1.2340    4.3940    1.8270 C   0  0  0  0  0  0  0  0  0  0  0
    1.0980    5.6810    2.3990 C   0  0  0  0  0  0  0  0  0  0  0
   -1.1160    5.8460    1.3620 C   0  0  0  0  0  0  0  0  0  0  0
   -0.9690    4.5690    0.8000 C   0  0  0  0  0  0  0  0  0  0  0
   -0.0960    6.3970    2.1520 C   0  0  0  0  0  0  0  0  0  0  0
   -0.2820    7.6350    2.6670 O   0  0  0  0  0  0  0  0  0  0  0
   -1.9780    4.0790    0.0440 O   0  0  0  0  0  0  0  0  0  0  0
   -0.3980    1.9840   -0.1760 O   0  0  0  0  0  0  0  0  0  0  0
    2.3690    3.6630    2.0480 O   0  0  0  0  0  0  0  0  0  0  0
    3.7260    1.7990    1.7800 C   0  0  0  0  0  0  0  0  0  0  0
    6.1190    1.6170    1.3200 C   0  0  0  0  0  0  0  0  0  0  0
    4.8770    2.2310    1.0890 C   0  0  0  0  0  0  0  0  0  0  0
    3.8320    0.7470    2.7230 C   0  0  0  0  0  0  0  0  0  0  0
    5.0830    0.1370    2.9470 C   0  0  0  0  0  0  0  0  0  0  0
    6.2210    0.5690    2.2470 C   0  0  0  0  0  0  0  0  0  0  0
    2.5020    0.1930    3.6200 Cl  0  0  0  0  0  0  0  0  0  0  0
    2.1660    6.2940    3.2420 C   0  0  2  0  0  0  0  0  0  0  0
    4.3970    7.4380    3.3810 C   0  0  0  0  0  0  0  0  0  0  0
    3.4170    6.7170    2.4390 C   0  0  1  0  0  0  0  0  0  0  0
    2.5870    5.4220    4.4430 C   0  0  0  0  0  0  0  0  0  0  0
    3.5960    6.1930    5.3080 C   0  0  0  0  0  0  0  0  0  0  0
    4.7810    6.5610    4.5070 N   0  0  0  0  0  0  0  0  0  0  0
    5.7650    7.2490    5.3620 C   0  0  0  0  0  0  0  0  0  0  0
    4.0940    5.6130    1.8500 O   0  0  0  0  0  0  0  0  0  0  0
    1.7170    0.9880    0.3650 H   0  0  0  0  0  0  0  0  0  0  0
   -1.9710    6.3780    1.1940 H   0  0  0  0  0  0  0  0  0  0  0
   -1.1420    8.0480    2.4420 H   0  0  0  0  0  0  0  0  0  0  0
   -2.7500    4.6750   -0.0510 H   0  0  0  0  0  0  0  0  0  0  0
    6.9470    1.9340    0.8140 H   0  0  0  0  0  0  0  0  0  0  0
    4.8160    2.9960    0.4150 H   0  0  0  0  0  0  0  0  0  0  0
    5.1760   -0.6230    3.6230 H   0  0  0  0  0  0  0  0  0  0  0
    7.1230    0.1230    2.4160 H   0  0  0  0  0  0  0  0  0  0  0
    1.7750    7.2150    3.6770 H   0  0  0  0  0  0  0  0  0  0  0
    3.9280    8.3490    3.7580 H   0  0  0  0  0  0  0  0  0  0  0
    5.2870    7.7120    2.8130 H   0  0  0  0  0  0  0  0  0  0  0
    3.1230    7.4080    1.6480 H   0  0  0  0  0  0  0  0  0  0  0
    1.7130    5.1750    5.0480 H   0  0  0  0  0  0  0  0  0  0  0
    3.0630    4.5000    4.1090 H   0  0  0  0  0  0  0  0  0  0  0
    3.1180    7.0880    5.7110 H   0  0  0  0  0  0  0  0  0  0  0
    3.9010    5.5520    6.1370 H   0  0  0  0  0  0  0  0  0  0  0
    6.0660    6.5900    6.1780 H   0  0  0  0  0  0  0  0  0  0  0
    6.6480    7.5030    4.7760 H   0  0  0  0  0  0  0  0  0  0  0
    5.3370    8.1620    5.7790 H   0  0  0  0  0  0  0  0  0  0  0
    4.9100    5.8500    1.3640 H   0  0  0  0  0  0  0  0  0  0  0
  1  2  1  0  0  0  0
  1  4  1  0  0  0  0
  1 12  2  0  0  0  0
  2  3  2  0  0  0  0
  2 29  1  0  0  0  0
  3 13  1  0  0  0  0
  3 14  1  0  0  0  0
  4  5  1  0  0  0  0
  4  8  2  0  0  0  0
  5  6  2  0  0  0  0
  5 13  1  0  0  0  0
  6  9  1  0  0  0  0
 21  6  1  6  0  0  0
  7  8  1  0  0  0  0
  7  9  2  0  0  0  0
  7 30  1  0  0  0  0
  8 11  1  0  0  0  0
  9 10  1  0  0  0  0
 10 31  1  0  0  0  0
 11 32  1  0  0  0  0
 14 16  2  0  0  0  0
 14 17  1  0  0  0  0
 15 16  1  0  0  0  0
 15 19  2  0  0  0  0
 15 33  1  0  0  0  0
 16 34  1  0  0  0  0
 17 18  2  0  0  0  0
 17 20  1  0  0  0  0
 18 19  1  0  0  0  0
 18 35  1  0  0  0  0
 19 36  1  0  0  0  0
 21 23  1  0  0  0  0
 21 24  1  0  0  0  0
 21 37  1  0  0  0  0
 22 23  1  0  0  0  0
 22 26  1  0  0  0  0
 22 38  1  0  0  0  0
 22 39  1  0  0  0  0
 23 28  1  6  0  0  0
 23 40  1  0  0  0  0
 24 25  1  0  0  0  0
 24 41  1  0  0  0  0
 24 42  1  0  0  0  0
 25 26  1  0  0  0  0
 25 43  1  0  0  0  0
 25 44  1  0  0  0  0
 26 27  1  0  0  0  0
 27 45  1  0  0  0  0
 27 46  1  0  0  0  0
 27 47  1  0  0  0  0
 28 48  1  0  0  0  0
M  END
> <From>
www.bindingDB.org

> <BindingDB Reactant_set_id>
51267902

> <Ligand InChI>
InChI=1S/C21H20ClNO5/c1-23-7-6-12(17(27)10-23)19-14(24)8-15(25)20-16(26)9-18(28-21(19)20)11-4-2-3-5-13(11)22/h2-5,8-9,12,17,24-25,27H,6-7,10H2,1H3/t12-,17+/m0/s1

> <Ligand InChI Key>
BIIVYFLTOXDAOV-YVEFUNNKSA-N

> <BindingDB MonomerID>
5655

> <BindingDB Ligand Name>
2-(2-chlorophenyl)-5,7-dihydroxy-8-[(3S,4R)-3-hydroxy-1-methylpiperidin-4-yl]-4H-chromen-4-one::CHEMBL428690::Flavopiridol::US10294218, Example Flavopiridol::US9617225, Flavopiridol

> <Target Name Assigned by Curator or DataSource>
Cyclin-dependent kinase 2

> <Target Source Organism According to Curator or DataSource>
Homo sapiens

> <Ki (nM)>
 40

> <IC50 (nM)>


> <Kd (nM)>


> <EC50 (nM)>


> <kon (M-1-s-1)>


> <koff (s-1)>


> <pH>


> <Temp C>


> <Curation/DataSource>
ChEMBL

> <Article DOI>
10.1016/j.bmc.2019.01.027

> <PMID>
30733087

> <PubChem AID>


> <Patent Number>


> <Authors>
Zhao, L; Yuan, X; Wang, J; Feng, Y; Ji, F; Li, Z; Bian, J

> <Institution>
China Pharmaceutical University

> <Link to Ligand in BindingDB>
http://www.bindingdb.org/bind/chemsearch/marvin/MolStructure.jsp?monomerid=5655

> <Link to Ligand-Target Pair in BindingDB>
http://www.bindingdb.org/jsp/dbsearch/PrimarySearch_ki.jsp?energyterm=kJ/mole&tag=pol&polymerid=796&target=Cyclin-dependent+kinase+2&column=ki&startPg=0&Increment=50&submit=Search

> <Link to Ligand-Target Pair in BindingDB>
http://www.bindingdb.org/jsp/dbsearch/PrimarySearch_ki.jsp?energyterm=kJ/mole&tag=r21&monomerid=5655&enzyme=Cyclin-dependent+kinase+2&column=ki&startPg=0&Increment=50&submit=Search

> <Ligand HET ID in PDB>
CPB

> <PDB ID(s) for Ligand-Target Complex>
3BLR,3EBP,4O71,1C8K,1E1Y

> <PubChem CID>
5287969

> <PubChem SID>
8035270

> <ChEBI ID of Ligand>


> <ChEMBL ID of Ligand>
CHEMBL428690

> <DrugBank ID of Ligand>
DB03496

> <IUPHAR_GRAC ID of Ligand>
5680

> <KEGG ID of Ligand>


> <ZINC ID of Ligand>
ZINC21288966

> <Number of Protein Chains in Target (bigger than 1 implies a multichain complex)>
1

> <BindingDB Target Chain Sequence>
MENFQKVEKIGEGTYGVVYKARNKLTGEVVALKKIRLDTETEGVPSTAIREISLLKELNHPNIVKLLDVIHTENKLYLVFEFLHQDLKKFMDASALTGIPLPLIKSYLFQLLQGLAFCHSHRVLHRDLKPQNLLINTEGAIKLADFGLARAFGVPVRTYTHEVVTLWYRAPEILLGCKYYSTAVDIWSLGCIFAEMVTRRALFPGDSEIDQLFRIFRTLGTPDEVVWPGVTSMPDYKPSFPKWARQDFSKVVPPLDEDGRSLLSQMLHYDPNKRISAKAALAHPFFQDVTKPVPHLRL

> <PDB ID(s) of Target Chain>
1CKP,1DI8,1DM2,1E1V,1E1X,1E9H,1F5Q,1FIN,1FQ1,1FVT,1FVV,1G5S,1GIH,1GY3,1GZ8,1H00,1H01,1H07,1H08,1H0V,1H0W,1H1P,1H1Q,1H1R,1H1S,1H24,1H25,1H26,1H27,1H28,1HCK,1HCL,1JST,1JSU,1JSV,1JVP,1KE5,1KE6,1KE7,1KE8,1KE9,1OGU,1OI9,1OIQ,1OIR,1OIU,1OIY,1OKV,1OKW,1OL1,1OL2,1P2A,1P5E,1PF8,1PKD,1PW2,1PXI,1PXJ,1PXK,1PXL,1PXM,1PXN,1PXO,1PXP,1PYE,1QMZ,1R78,1URC,1URW,1V1K,1VYW,1VYZ,1W0X,1W8C,1W98,1WCC,1Y8Y,1Y91,1YKR,2A0C,2A4L,2B52,2B53,2B54,2B55,2BHE,2BHH,2BKZ,2BPM,2BTR,2BTS,2C4G,2C5N,2C5O,2C5V,2C5X,2C5Y,2C68,2C69,2C6I,2C6K,2C6L,2C6M,2C6O,2C6T,2CCH,2CCI,2CJM,2CLX,2DUV,2EXM,2FVD,2G9X,2I40,2J9M,2JGZ,2R3F,2R3G,2R3H,2R3I,2R3J,2R3K,2R3L,2R3M,2R3N,2R3O,2R3P,2R3Q,2R3R,2R64,2UUE,2UZB,2UZD,2UZE,2UZL,2UZN,2UZO,2V0D,2V22,2VTA,2VTH,2VTI,2VTJ,2VTL,2VTM,2VTN,2VTO,2VTP,2VTQ,2VTR,2VTS,2VTT,2VU3,2VV9,2W05,2W06,2W17,2W1H,2WEV,2WFY,2WHB,2WIH,2WIP,2WMA,2WMB,2WPA,2WXV,2X1N,2XMY,2XNB,3BHT,3BHU,3BHV,3DDP,3DDQ,3DOG,3EID,3EJ1,3EOC,3EZR,3EZV,3F5X,3FZ1,3IG7,3IGG,3LE6,3LFN,3LFQ,3LFS,3MY5,3NS9,3PJ8,3PXF,3PXQ,3PXR,3PXY,3PXZ,3PY0,3PY1,3QHR,3QHW,3QL8,3QQF,3QQG,3QQH,3QQJ,3QQK,3QQL,3QRT,3QRU,3QTQ,3QTR,3QTS,3QTU,3QTW,3QTX,3QTZ,3QU0,3QWJ,3QWK,3QX2,3QX4,3QXO,3QXP,3QZF,3QZG,3QZH,3QZI,3R1Q,3R1S,3R1Y,3R28,3R6X,3R71,3R73,3R7E,3R7I,3R7U,3R7V,3R7Y,3R83,3R8L,3R8M,3R8P,3R8U,3R8V,3R8Z,3R9D,3R9H,3R9N,3R9O,3RAH,3RAI,3RAK,3RAL,3RJC,3RK5,3RK7,3RK9,3RKB,3RM6,3RM7,3RMF,3RNI,3ROY,3RPO,3RPR,3RPV,3RPY,3RZB,3S00,3S0O,3S1H,3S2P,3SQQ,3SW4,3SW7,3TI1,3TIY,3TIZ,3TNW,3ULI,3UNJ,3UNK,3WBL,4ACM,4BCK,4BCM,4BCN,4BCO,4BCP,4BCQ,4BGH,4BZD,4CFM,4CFN,4CFU,4CFV,4CFW,4CFX,4D1X,4D1Z,4EK3,4EK4,4EK5,4EK6,4EK8,4EOQ,4EOR,4EOS,4ERW,4EZ3,4EZ7,4FKG,4FKI,4FKJ,4FKL,4FKO,4FKP,4FKQ,4FKR,4FKS,4FKT,4FKU,4FKV,4FKW,4FX3,4GCJ,4I3Z,4II5,4KD1,4LYN,4NJ3,4RJ3,5A14,5AND,5ANE,5ANG,5ANI,5ANJ,5ANK,5ANO,5CYI,5D1J,5FP5,5FP6,5IEV,5IEX,5IEY,5IF1,5JQ5,5JQ8,5K4J,5L2W,5LMK,5MHQ,5NEV,5OO0,5OSJ,5UQ1,5UQ2,5UQ3,6ATH,6GUB,6GUC,6GUE,6GUF,6GUH,6GUK,6GVA,6INL,6JGM,6OQI,6P3W,6Q3B,6Q3C,6Q3F,6Q48,6Q49,6Q4A,6Q4B,6Q4C,6Q4D,6Q4E,6Q4F,6Q4H,6Q4J,6Q4K,6RIJ,6SG4,7ACK,7B5L,7B5R,7B7S,7E34,7KJS,7M2F,7NVQ

> <UniProt (SwissProt) Recommended Name of Target Chain>
Cyclin-dependent kinase 2

> <UniProt (SwissProt) Entry Name of Target Chain>
CDK2_HUMAN

> <UniProt (SwissProt) Primary ID of Target Chain>
P24941

> <UniProt (SwissProt) Secondary ID(s) of Target Chain>
A8K7C6,O75100

> <UniProt (SwissProt) Alternative ID(s) of Target Chain>


> <UniProt (TrEMBL) Submitted Name of Target Chain>


> <UniProt (TrEMBL) Entry Name of Target Chain>


> <UniProt (TrEMBL) Primary ID of Target Chain>
A0A024RB77

> <UniProt (TrEMBL) Secondary ID(s) of Target Chain>


> <UniProt (TrEMBL) Alternative ID(s) of Target Chain>


$$$$
ttt_mol_1

Vconf v2.1
 44 46  0  0  0  0  0  0  0  0999 V2000
    2.2450    3.9580   -0.2240 N   0  0  0  0  0  0  0  0  0  0  0
    1.9200    2.6620   -0.1270 C   0  0  0  0  0  0  0  0  0  0  0
    2.9560    1.8720    0.3830 C   0  0  0  0  0  0  0  0  0  0  0
    4.3700    2.8120    0.7360 S   0  0  0  0  0  0  0  0  0  0  0
    3.4940    4.1990    0.1890 C   0  0  0  0  0  0  0  0  0  0  0
    0.5940    2.1960   -0.5450 C   0  0  0  0  0  0  0  0  0  0  0
    4.0240    5.4280    0.1730 N   0  0  0  0  0  0  0  0  0  0  0
    2.9300    0.4800    0.6160 C   0  0  0  0  0  0  0  0  0  0  0
    4.0660   -0.1710    1.1320 C   0  0  0  0  0  0  0  0  0  0  0
    3.9950   -1.5510    1.3570 C   0  0  0  0  0  0  0  0  0  0  0
    2.8540   -2.2230    1.0800 N   0  0  0  0  0  0  0  0  0  0  0
    1.7620   -1.6020    0.5800 C   0  0  0  0  0  0  0  0  0  0  0
    1.8200   -0.2630    0.3590 N   0  0  0  0  0  0  0  0  0  0  0
    0.6650   -2.3610    0.3480 N   0  0  0  0  0  0  0  0  0  0  0
   -0.5260   -1.9330   -0.1390 C   0  0  0  0  0  0  0  0  0  0  0
   -2.9620   -2.0350   -0.0190 C   0  0  0  0  0  0  0  0  0  0  0
   -1.7000   -2.4220    0.4630 C   0  0  0  0  0  0  0  0  0  0  0
   -0.6320   -1.0720   -1.2510 C   0  0  0  0  0  0  0  0  0  0  0
   -1.8920   -0.6760   -1.7360 C   0  0  0  0  0  0  0  0  0  0  0
   -3.0570   -1.1610   -1.1140 C   0  0  0  0  0  0  0  0  0  0  0
   -2.0110    0.4190   -3.0810 S   0  0  0  0  0  0  0  0  0  0  0
   -0.6130    0.4820   -3.8350 O   0  0  0  0  0  0  0  0  0  0  0
   -3.4190    0.2050   -3.7890 O   0  0  0  0  0  0  0  0  0  0  0
   -2.1000    1.9350   -2.3590 N   0  0  0  0  0  0  0  0  0  0  0
   -3.2650    2.3670   -1.6840 C   0  0  0  0  0  0  0  0  0  0  0
   -2.9450    2.6170   -0.2070 C   0  0  0  0  0  0  0  0  0  0  0
    0.0850    1.7150    0.2900 H   0  0  0  0  0  0  0  0  0  0  0
   -0.0020    3.0440   -0.8840 H   0  0  0  0  0  0  0  0  0  0  0
    0.7010    1.4900   -1.3680 H   0  0  0  0  0  0  0  0  0  0  0
    4.9330    5.5680    0.4780 H   0  0  0  0  0  0  0  0  0  0  0
    3.4960    6.1760   -0.1450 H   0  0  0  0  0  0  0  0  0  0  0
    4.9270    0.3350    1.3440 H   0  0  0  0  0  0  0  0  0  0  0
    4.8020   -2.0500    1.7310 H   0  0  0  0  0  0  0  0  0  0  0
    0.7260   -3.2960    0.6000 H   0  0  0  0  0  0  0  0  0  0  0
   -3.8090   -2.3890    0.4260 H   0  0  0  0  0  0  0  0  0  0  0
   -1.6400   -3.0600    1.2580 H   0  0  0  0  0  0  0  0  0  0  0
    0.2120   -0.7330   -1.7140 H   0  0  0  0  0  0  0  0  0  0  0
   -3.9740   -0.8780   -1.4600 H   0  0  0  0  0  0  0  0  0  0  0
   -1.3260    2.5170   -2.3990 H   0  0  0  0  0  0  0  0  0  0  0
   -3.6220    3.2910   -2.1400 H   0  0  0  0  0  0  0  0  0  0  0
   -4.0450    1.6090   -1.7590 H   0  0  0  0  0  0  0  0  0  0  0
   -3.8550    2.9170    0.3140 H   0  0  0  0  0  0  0  0  0  0  0
   -2.5560    1.7050    0.2480 H   0  0  0  0  0  0  0  0  0  0  0
   -2.2040    3.4120   -0.1180 H   0  0  0  0  0  0  0  0  0  0  0
  1  2  1  0  0  0  0
  1  5  2  0  0  0  0
  2  3  2  0  0  0  0
  2  6  1  0  0  0  0
  3  4  1  0  0  0  0
  3  8  1  0  0  0  0
  4  5  1  0  0  0  0
  5  7  1  0  0  0  0
  6 27  1  0  0  0  0
  6 28  1  0  0  0  0
  6 29  1  0  0  0  0
  7 30  1  0  0  0  0
  7 31  1  0  0  0  0
  8  9  2  0  0  0  0
  8 13  1  0  0  0  0
  9 10  1  0  0  0  0
  9 32  1  0  0  0  0
 10 11  2  0  0  0  0
 10 33  1  0  0  0  0
 11 12  1  0  0  0  0
 12 13  2  0  0  0  0
 12 14  1  0  0  0  0
 14 15  1  0  0  0  0
 14 34  1  0  0  0  0
 15 17  2  0  0  0  0
 15 18  1  0  0  0  0
 16 17  1  0  0  0  0
 16 20  2  0  0  0  0
 16 35  1  0  0  0  0
 17 36  1  0  0  0  0
 18 19  2  0  0  0  0
 18 37  1  0  0  0  0
 19 20  1  0  0  0  0
 19 21  1  0  0  0  0
 20 38  1  0  0  0  0
 21 22  2  0  0  0  0
 21 23  2  0  0  0  0
 21 24  1  0  0  0  0
 24 25  1  0  0  0  0
 24 39  1  0  0  0  0
 25 26  1  0  0  0  0
 25 40  1  0  0  0  0
 25 41  1  0  0  0  0
 26 42  1  0  0  0  0
 26 43  1  0  0  0  0
 26 44  1  0  0  0  0
M  END
> <From>
www.bindingDB.org

> <BindingDB Reactant_set_id>
153785

> <Ligand InChI>
InChI=1S/C16H18N6O2S2/c1-3-19-26(23,24)12-6-4-5-11(9-12)21-16-18-8-7-13(22-16)14-10(2)20-15(17)25-14/h4-9,19H,3H2,1-2H3,(H2,17,20)(H,18,21,22)

> <Ligand InChI Key>
WZGHCPBEOCOZJD-UHFFFAOYSA-N

> <BindingDB MonomerID>
81435

> <BindingDB Ligand Name>
CDK Inhibitor, 8

> <Target Name Assigned by Curator or DataSource>
Cyclin-dependent kinase 2

> <Target Source Organism According to Curator or DataSource>
Homo sapiens

> <Ki (nM)>
 47

> <IC50 (nM)>


> <Kd (nM)>


> <EC50 (nM)>


> <kon (M-1-s-1)>


> <koff (s-1)>


> <pH>


> <Temp C>


> <Curation/DataSource>
Curated from the literature by BindingDB

> <Article DOI>
10.1016/j.chembiol.2010.07.016

> <PMID>
21035734

> <PubChem AID>


> <Patent Number>


> <Authors>
Wang, S; Griffiths, G; Midgley, CA; Barnett, AL; Cooper, M; Grabarek, J; Ingram, L; Jackson, W; Kontopidis, G; McClue, SJ; McInnes, C; McLachlan, J; Meades, C; Mezna, M; Stuart, I; Thomas, MP; Zheleva, DI; Lane, DP; Jackson, RC; Glover, DM; Blake, DG; Fischer, PM

> <Institution>
Cyclacel Limited

> <Link to Ligand in BindingDB>
http://www.bindingdb.org/bind/chemsearch/marvin/MolStructure.jsp?monomerid=81435

> <Link to Ligand-Target Pair in BindingDB>
http://www.bindingdb.org/jsp/dbsearch/PrimarySearch_ki.jsp?energyterm=kJ/mole&tag=pol&polymerid=796&target=Cyclin-dependent+kinase+2&column=ki&startPg=0&Increment=50&submit=Search

> <Link to Ligand-Target Pair in BindingDB>
http://www.bindingdb.org/jsp/dbsearch/PrimarySearch_ki.jsp?energyterm=kJ/mole&tag=r21&monomerid=81435&enzyme=Cyclin-dependent+kinase+2&column=ki&startPg=0&Increment=50&submit=Search

> <Ligand HET ID in PDB>


> <PDB ID(s) for Ligand-Target Complex>


> <PubChem CID>
11661098

> <PubChem SID>
131342009

> <ChEBI ID of Ligand>


> <ChEMBL ID of Ligand>


> <DrugBank ID of Ligand>


> <IUPHAR_GRAC ID of Ligand>


> <KEGG ID of Ligand>


> <ZINC ID of Ligand>
ZINC38209395

> <Number of Protein Chains in Target (bigger than 1 implies a multichain complex)>
1

> <BindingDB Target Chain Sequence>
MENFQKVEKIGEGTYGVVYKARNKLTGEVVALKKIRLDTETEGVPSTAIREISLLKELNHPNIVKLLDVIHTENKLYLVFEFLHQDLKKFMDASALTGIPLPLIKSYLFQLLQGLAFCHSHRVLHRDLKPQNLLINTEGAIKLADFGLARAFGVPVRTYTHEVVTLWYRAPEILLGCKYYSTAVDIWSLGCIFAEMVTRRALFPGDSEIDQLFRIFRTLGTPDEVVWPGVTSMPDYKPSFPKWARQDFSKVVPPLDEDGRSLLSQMLHYDPNKRISAKAALAHPFFQDVTKPVPHLRL

> <PDB ID(s) of Target Chain>
1CKP,1DI8,1DM2,1E1V,1E1X,1E9H,1F5Q,1FIN,1FQ1,1FVT,1FVV,1G5S,1GIH,1GY3,1GZ8,1H00,1H01,1H07,1H08,1H0V,1H0W,1H1P,1H1Q,1H1R,1H1S,1H24,1H25,1H26,1H27,1H28,1HCK,1HCL,1JST,1JSU,1JSV,1JVP,1KE5,1KE6,1KE7,1KE8,1KE9,1OGU,1OI9,1OIQ,1OIR,1OIU,1OIY,1OKV,1OKW,1OL1,1OL2,1P2A,1P5E,1PF8,1PKD,1PW2,1PXI,1PXJ,1PXK,1PXL,1PXM,1PXN,1PXO,1PXP,1PYE,1QMZ,1R78,1URC,1URW,1V1K,1VYW,1VYZ,1W0X,1W8C,1W98,1WCC,1Y8Y,1Y91,1YKR,2A0C,2A4L,2B52,2B53,2B54,2B55,2BHE,2BHH,2BKZ,2BPM,2BTR,2BTS,2C4G,2C5N,2C5O,2C5V,2C5X,2C5Y,2C68,2C69,2C6I,2C6K,2C6L,2C6M,2C6O,2C6T,2CCH,2CCI,2CJM,2CLX,2DUV,2EXM,2FVD,2G9X,2I40,2J9M,2JGZ,2R3F,2R3G,2R3H,2R3I,2R3J,2R3K,2R3L,2R3M,2R3N,2R3O,2R3P,2R3Q,2R3R,2R64,2UUE,2UZB,2UZD,2UZE,2UZL,2UZN,2UZO,2V0D,2V22,2VTA,2VTH,2VTI,2VTJ,2VTL,2VTM,2VTN,2VTO,2VTP,2VTQ,2VTR,2VTS,2VTT,2VU3,2VV9,2W05,2W06,2W17,2W1H,2WEV,2WFY,2WHB,2WIH,2WIP,2WMA,2WMB,2WPA,2WXV,2X1N,2XMY,2XNB,3BHT,3BHU,3BHV,3DDP,3DDQ,3DOG,3EID,3EJ1,3EOC,3EZR,3EZV,3F5X,3FZ1,3IG7,3IGG,3LE6,3LFN,3LFQ,3LFS,3MY5,3NS9,3PJ8,3PXF,3PXQ,3PXR,3PXY,3PXZ,3PY0,3PY1,3QHR,3QHW,3QL8,3QQF,3QQG,3QQH,3QQJ,3QQK,3QQL,3QRT,3QRU,3QTQ,3QTR,3QTS,3QTU,3QTW,3QTX,3QTZ,3QU0,3QWJ,3QWK,3QX2,3QX4,3QXO,3QXP,3QZF,3QZG,3QZH,3QZI,3R1Q,3R1S,3R1Y,3R28,3R6X,3R71,3R73,3R7E,3R7I,3R7U,3R7V,3R7Y,3R83,3R8L,3R8M,3R8P,3R8U,3R8V,3R8Z,3R9D,3R9H,3R9N,3R9O,3RAH,3RAI,3RAK,3RAL,3RJC,3RK5,3RK7,3RK9,3RKB,3RM6,3RM7,3RMF,3RNI,3ROY,3RPO,3RPR,3RPV,3RPY,3RZB,3S00,3S0O,3S1H,3S2P,3SQQ,3SW4,3SW7,3TI1,3TIY,3TIZ,3TNW,3ULI,3UNJ,3UNK,3WBL,4ACM,4BCK,4BCM,4BCN,4BCO,4BCP,4BCQ,4BGH,4BZD,4CFM,4CFN,4CFU,4CFV,4CFW,4CFX,4D1X,4D1Z,4EK3,4EK4,4EK5,4EK6,4EK8,4EOQ,4EOR,4EOS,4ERW,4EZ3,4EZ7,4FKG,4FKI,4FKJ,4FKL,4FKO,4FKP,4FKQ,4FKR,4FKS,4FKT,4FKU,4FKV,4FKW,4FX3,4GCJ,4I3Z,4II5,4KD1,4LYN,4NJ3,4RJ3,5A14,5AND,5ANE,5ANG,5ANI,5ANJ,5ANK,5ANO,5CYI,5D1J,5FP5,5FP6,5IEV,5IEX,5IEY,5IF1,5JQ5,5JQ8,5K4J,5L2W,5LMK,5MHQ,5NEV,5OO0,5OSJ,5UQ1,5UQ2,5UQ3,6ATH,6GUB,6GUC,6GUE,6GUF,6GUH,6GUK,6GVA,6INL,6JGM,6OQI,6P3W,6Q3B,6Q3C,6Q3F,6Q48,6Q49,6Q4A,6Q4B,6Q4C,6Q4D,6Q4E,6Q4F,6Q4H,6Q4J,6Q4K,6RIJ,6SG4,7ACK,7B5L,7B5R,7B7S,7E34,7KJS,7M2F,7NVQ

> <UniProt (SwissProt) Recommended Name of Target Chain>
Cyclin-dependent kinase 2

> <UniProt (SwissProt) Entry Name of Target Chain>
CDK2_HUMAN

> <UniProt (SwissProt) Primary ID of Target Chain>
P24941

> <UniProt (SwissProt) Secondary ID(s) of Target Chain>
A8K7C6,O75100

> <UniProt (SwissProt) Alternative ID(s) of Target Chain>


> <UniProt (TrEMBL) Submitted Name of Target Chain>


> <UniProt (TrEMBL) Entry Name of Target Chain>


> <UniProt (TrEMBL) Primary ID of Target Chain>
A0A024RB77

> <UniProt (TrEMBL) Secondary ID(s) of Target Chain>


> <UniProt (TrEMBL) Alternative ID(s) of Target Chain>


$$$$
BindingDB_50313051_mol_1

Vconf v2.0 Academic SN VC001-00000579
 35 37  0  0  0  0  0  0  0  0999 V2000
   11.8300   -4.6320   -0.5880 N   0  0  0  0  0  0  0  0  0  0  0
   12.7280   -5.4940   -0.9480 N   0  0  0  0  0  0  0  0  0  0  0
   13.0840   -5.2730   -2.2190 C   0  0  0  0  0  0  0  0  0  0  0
   12.3440   -4.1860   -2.6800 C   0  0  0  0  0  0  0  0  0  0  0
   11.5510   -3.7910   -1.6030 C   0  0  0  0  0  0  0  0  0  0  0
   12.3550   -3.6320   -3.8750 N   0  0  0  0  0  0  0  0  0  0  0
   13.0580   -4.0020   -4.8080 N   0  0  0  0  0  0  0  0  0  0  0
   13.0720   -3.4500   -6.0060 C   0  0  0  0  0  0  0  0  0  0  0
   13.9250   -5.9420   -2.8580 O   0  0  0  0  0  0  0  0  0  0  0
   10.6060   -2.7420   -1.5420 C   0  0  0  0  0  0  0  0  0  0  0
   10.7880   -1.5350   -2.2520 C   0  0  0  0  0  0  0  0  0  0  0
    9.8320   -0.5080   -2.1750 C   0  0  0  0  0  0  0  0  0  0  0
    8.6790   -0.6600   -1.3860 C   0  0  0  0  0  0  0  0  0  0  0
    8.4970   -1.8590   -0.6680 C   0  0  0  0  0  0  0  0  0  0  0
    9.4510   -2.8880   -0.7430 C   0  0  0  0  0  0  0  0  0  0  0
   12.2720   -2.3440   -6.3660 C   0  0  0  0  0  0  0  0  0  0  0
   12.3430   -1.8330   -7.6210 N   0  0  0  0  0  0  0  0  0  0  0
   13.1630   -2.3410   -8.5740 C   0  0  0  0  0  0  0  0  0  0  0
   13.9810   -3.4400   -8.2730 C   0  0  0  0  0  0  0  0  0  0  0
   13.9290   -3.9900   -6.9820 C   0  0  0  0  0  0  0  0  0  0  0
    7.7960    0.3820   -1.3630 O   0  0  0  0  0  0  0  0  0  0  0
    6.5850    0.3470   -0.6040 C   0  0  0  0  0  0  0  0  0  0  0
   11.4170   -4.5940    0.2890 H   0  0  0  0  0  0  0  0  0  0  0
   13.0890   -6.1980   -0.3870 H   0  0  0  0  0  0  0  0  0  0  0
   11.6190   -1.3890   -2.8270 H   0  0  0  0  0  0  0  0  0  0  0
    9.9780    0.3570   -2.6970 H   0  0  0  0  0  0  0  0  0  0  0
    7.6690   -1.9900   -0.0870 H   0  0  0  0  0  0  0  0  0  0  0
    9.2930   -3.7480   -0.2150 H   0  0  0  0  0  0  0  0  0  0  0
   11.6370   -1.9230   -5.6870 H   0  0  0  0  0  0  0  0  0  0  0
   13.1840   -1.9250   -9.5060 H   0  0  0  0  0  0  0  0  0  0  0
   14.6030   -3.8330   -8.9790 H   0  0  0  0  0  0  0  0  0  0  0
   14.5200   -4.7900   -6.7530 H   0  0  0  0  0  0  0  0  0  0  0
    6.0510    1.2860   -0.7490 H   0  0  0  0  0  0  0  0  0  0  0
    5.9510   -0.4750   -0.9420 H   0  0  0  0  0  0  0  0  0  0  0
    6.8070    0.2270    0.4570 H   0  0  0  0  0  0  0  0  0  0  0
  1  2  1  0  0  0  0
  1  5  1  0  0  0  0
  1 23  1  0  0  0  0
  2  3  1  0  0  0  0
  2 24  1  0  0  0  0
  3  4  1  0  0  0  0
  3  9  2  0  0  0  0
  4  5  2  0  0  0  0
  4  6  1  0  0  0  0
  5 10  1  0  0  0  0
  6  7  2  0  0  0  0
  7  8  1  0  0  0  0
  8 16  2  0  0  0  0
  8 20  1  0  0  0  0
 10 11  2  0  0  0  0
 10 15  1  0  0  0  0
 11 12  1  0  0  0  0
 11 25  1  0  0  0  0
 12 13  2  0  0  0  0
 12 26  1  0  0  0  0
 13 14  1  0  0  0  0
 13 21  1  0  0  0  0
 14 15  2  0  0  0  0
 14 27  1  0  0  0  0
 15 28  1  0  0  0  0
 16 17  1  0  0  0  0
 16 29  1  0  0  0  0
 17 18  2  0  0  0  0
 18 19  1  0  0  0  0
 18 30  1  0  0  0  0
 19 20  2  0  0  0  0
 19 31  1  0  0  0  0
 20 32  1  0  0  0  0
 21 22  1  0  0  0  0
 22 33  1  0  0  0  0
 22 34  1  0  0  0  0
 22 35  1  0  0  0  0
M  END
> <From>
www.bindingDB.org

> <BindingDB Reactant_set_id>
50910157

> <Ligand InChI>
InChI=1S/C15H13N5O2/c1-22-12-6-4-10(5-7-12)13-14(15(21)20-18-13)19-17-11-3-2-8-16-9-11/h2-9H,1H3,(H2,18,20,21)

> <Ligand InChI Key>
KRHWSBXYWJHICK-UHFFFAOYSA-N

> <BindingDB MonomerID>
50313051

> <BindingDB Ligand Name>
(Z)-3-(4-methoxyphenyl)-4-(2-(pyridin-3-yl)hydrazono)-1H-pyrazol-5(4H)-one::CHEMBL1076721

> <Target Name Assigned by Curator or DataSource>
Cyclin-dependent kinase 2

> <Target Source Organism According to Curator or DataSource>
Homo sapiens

> <Ki (nM)>
 62

> <IC50 (nM)>


> <Kd (nM)>


> <EC50 (nM)>


> <kon (M-1-s-1)>


> <koff (s-1)>


> <pH>


> <Temp C>


> <Curation/DataSource>
ChEMBL

> <Article DOI>
10.1016/j.bmcl.2010.01.072

> <PMID>
20138514

> <PubChem AID>


> <Patent Number>


> <Authors>
Arnost, M; Pierce, A; ter Haar, E; Lauffer, D; Madden, J; Tanner, K; Green, J

> <Institution>
Vertex Pharmaceuticals Inc

> <Link to Ligand in BindingDB>
http://www.bindingdb.org/bind/chemsearch/marvin/MolStructure.jsp?monomerid=50313051

> <Link to Ligand-Target Pair in BindingDB>
http://www.bindingdb.org/jsp/dbsearch/PrimarySearch_ki.jsp?energyterm=kJ/mole&tag=pol&polymerid=796&target=Cyclin-dependent+kinase+2&column=ki&startPg=0&Increment=50&submit=Search

> <Link to Ligand-Target Pair in BindingDB>
http://www.bindingdb.org/jsp/dbsearch/PrimarySearch_ki.jsp?energyterm=kJ/mole&tag=r21&monomerid=50313051&enzyme=Cyclin-dependent+kinase+2&column=ki&startPg=0&Increment=50&submit=Search

> <Ligand HET ID in PDB>


> <PDB ID(s) for Ligand-Target Complex>


> <PubChem CID>
22353185

> <PubChem SID>
104147412

> <ChEBI ID of Ligand>


> <ChEMBL ID of Ligand>
CHEMBL1076721

> <DrugBank ID of Ligand>


> <IUPHAR_GRAC ID of Ligand>


> <KEGG ID of Ligand>


> <ZINC ID of Ligand>
ZINC49525584

> <Number of Protein Chains in Target (bigger than 1 implies a multichain complex)>
1

> <BindingDB Target Chain Sequence>
MENFQKVEKIGEGTYGVVYKARNKLTGEVVALKKIRLDTETEGVPSTAIREISLLKELNHPNIVKLLDVIHTENKLYLVFEFLHQDLKKFMDASALTGIPLPLIKSYLFQLLQGLAFCHSHRVLHRDLKPQNLLINTEGAIKLADFGLARAFGVPVRTYTHEVVTLWYRAPEILLGCKYYSTAVDIWSLGCIFAEMVTRRALFPGDSEIDQLFRIFRTLGTPDEVVWPGVTSMPDYKPSFPKWARQDFSKVVPPLDEDGRSLLSQMLHYDPNKRISAKAALAHPFFQDVTKPVPHLRL

> <PDB ID(s) of Target Chain>
1CKP,1DI8,1DM2,1E1V,1E1X,1E9H,1F5Q,1FIN,1FQ1,1FVT,1FVV,1G5S,1GIH,1GY3,1GZ8,1H00,1H01,1H07,1H08,1H0V,1H0W,1H1P,1H1Q,1H1R,1H1S,1H24,1H25,1H26,1H27,1H28,1HCK,1HCL,1JST,1JSU,1JSV,1JVP,1KE5,1KE6,1KE7,1KE8,1KE9,1OGU,1OI9,1OIQ,1OIR,1OIU,1OIY,1OKV,1OKW,1OL1,1OL2,1P2A,1P5E,1PF8,1PKD,1PW2,1PXI,1PXJ,1PXK,1PXL,1PXM,1PXN,1PXO,1PXP,1PYE,1QMZ,1R78,1URC,1URW,1V1K,1VYW,1VYZ,1W0X,1W8C,1W98,1WCC,1Y8Y,1Y91,1YKR,2A0C,2A4L,2B52,2B53,2B54,2B55,2BHE,2BHH,2BKZ,2BPM,2BTR,2BTS,2C4G,2C5N,2C5O,2C5V,2C5X,2C5Y,2C68,2C69,2C6I,2C6K,2C6L,2C6M,2C6O,2C6T,2CCH,2CCI,2CJM,2CLX,2DUV,2EXM,2FVD,2G9X,2I40,2J9M,2JGZ,2R3F,2R3G,2R3H,2R3I,2R3J,2R3K,2R3L,2R3M,2R3N,2R3O,2R3P,2R3Q,2R3R,2R64,2UUE,2UZB,2UZD,2UZE,2UZL,2UZN,2UZO,2V0D,2V22,2VTA,2VTH,2VTI,2VTJ,2VTL,2VTM,2VTN,2VTO,2VTP,2VTQ,2VTR,2VTS,2VTT,2VU3,2VV9,2W05,2W06,2W17,2W1H,2WEV,2WFY,2WHB,2WIH,2WIP,2WMA,2WMB,2WPA,2WXV,2X1N,2XMY,2XNB,3BHT,3BHU,3BHV,3DDP,3DDQ,3DOG,3EID,3EJ1,3EOC,3EZR,3EZV,3F5X,3FZ1,3IG7,3IGG,3LE6,3LFN,3LFQ,3LFS,3MY5,3NS9,3PJ8,3PXF,3PXQ,3PXR,3PXY,3PXZ,3PY0,3PY1,3QHR,3QHW,3QL8,3QQF,3QQG,3QQH,3QQJ,3QQK,3QQL,3QRT,3QRU,3QTQ,3QTR,3QTS,3QTU,3QTW,3QTX,3QTZ,3QU0,3QWJ,3QWK,3QX2,3QX4,3QXO,3QXP,3QZF,3QZG,3QZH,3QZI,3R1Q,3R1S,3R1Y,3R28,3R6X,3R71,3R73,3R7E,3R7I,3R7U,3R7V,3R7Y,3R83,3R8L,3R8M,3R8P,3R8U,3R8V,3R8Z,3R9D,3R9H,3R9N,3R9O,3RAH,3RAI,3RAK,3RAL,3RJC,3RK5,3RK7,3RK9,3RKB,3RM6,3RM7,3RMF,3RNI,3ROY,3RPO,3RPR,3RPV,3RPY,3RZB,3S00,3S0O,3S1H,3S2P,3SQQ,3SW4,3SW7,3TI1,3TIY,3TIZ,3TNW,3ULI,3UNJ,3UNK,3WBL,4ACM,4BCK,4BCM,4BCN,4BCO,4BCP,4BCQ,4BGH,4BZD,4CFM,4CFN,4CFU,4CFV,4CFW,4CFX,4D1X,4D1Z,4EK3,4EK4,4EK5,4EK6,4EK8,4EOQ,4EOR,4EOS,4ERW,4EZ3,4EZ7,4FKG,4FKI,4FKJ,4FKL,4FKO,4FKP,4FKQ,4FKR,4FKS,4FKT,4FKU,4FKV,4FKW,4FX3,4GCJ,4I3Z,4II5,4KD1,4LYN,4NJ3,4RJ3,5A14,5AND,5ANE,5ANG,5ANI,5ANJ,5ANK,5ANO,5CYI,5D1J,5FP5,5FP6,5IEV,5IEX,5IEY,5IF1,5JQ5,5JQ8,5K4J,5L2W,5LMK,5MHQ,5NEV,5OO0,5OSJ,5UQ1,5UQ2,5UQ3,6ATH,6GUB,6GUC,6GUE,6GUF,6GUH,6GUK,6GVA,6INL,6JGM,6OQI,6P3W,6Q3B,6Q3C,6Q3F,6Q48,6Q49,6Q4A,6Q4B,6Q4C,6Q4D,6Q4E,6Q4F,6Q4H,6Q4J,6Q4K,6RIJ,6SG4,7ACK,7B5L,7B5R,7B7S,7E34,7KJS,7M2F,7NVQ

> <UniProt (SwissProt) Recommended Name of Target Chain>
Cyclin-dependent kinase 2

> <UniProt (SwissProt) Entry Name of Target Chain>
CDK2_HUMAN

> <UniProt (SwissProt) Primary ID of Target Chain>
P24941

> <UniProt (SwissProt) Secondary ID(s) of Target Chain>
A8K7C6,O75100

> <UniProt (SwissProt) Alternative ID(s) of Target Chain>


> <UniProt (TrEMBL) Submitted Name of Target Chain>


> <UniProt (TrEMBL) Entry Name of Target Chain>


> <UniProt (TrEMBL) Primary ID of Target Chain>
A0A024RB77

> <UniProt (TrEMBL) Secondary ID(s) of Target Chain>


> <UniProt (TrEMBL) Alternative ID(s) of Target Chain>


$$$$
BindingDB_50313061_mol_1

Vconf v2.0 Academic SN VC001-00000579
 35 37  0  0  0  0  0  0  0  0999 V2000
    4.8790  -26.3990   -0.2990 N   0  0  0  0  0  0  0  0  0  0  0
    5.7360  -27.2760   -0.7180 N   0  0  0  0  0  0  0  0  0  0  0
    6.1000  -26.9890   -1.9730 C   0  0  0  0  0  0  0  0  0  0  0
    5.4100  -25.8410   -2.3580 C   0  0  0  0  0  0  0  0  0  0  0
    4.6360  -25.4810   -1.2550 C   0  0  0  0  0  0  0  0  0  0  0
    5.4420  -25.2100   -3.5150 N   0  0  0  0  0  0  0  0  0  0  0
    6.1250  -25.5480   -4.4740 N   0  0  0  0  0  0  0  0  0  0  0
    6.1610  -24.9250   -5.6370 C   0  0  0  0  0  0  0  0  0  0  0
    6.9070  -27.6530   -2.6590 O   0  0  0  0  0  0  0  0  0  0  0
    3.7460  -24.3890   -1.1210 C   0  0  0  0  0  0  0  0  0  0  0
    4.0450  -23.1390   -1.7030 C   0  0  0  0  0  0  0  0  0  0  0
    3.1960  -22.0930   -1.5610 N   0  0  0  0  0  0  0  0  0  0  0
    2.0370  -22.1810   -0.8670 C   0  0  0  0  0  0  0  0  0  0  0
    1.6820  -23.3960   -0.2670 C   0  0  0  0  0  0  0  0  0  0  0
    2.5390  -24.5110   -0.3910 C   0  0  0  0  0  0  0  0  0  0  0
    5.3990  -23.7680   -5.9170 C   0  0  0  0  0  0  0  0  0  0  0
    5.4790  -23.1500   -7.1760 C   0  0  0  0  0  0  0  0  0  0  0
    6.3190  -23.6830   -8.1680 C   0  0  0  0  0  0  0  0  0  0  0
    7.0830  -24.8310   -7.8970 C   0  0  0  0  0  0  0  0  0  0  0
    7.0030  -25.4480   -6.6370 C   0  0  0  0  0  0  0  0  0  0  0
    2.2340  -25.7230    0.1710 O   0  0  0  0  0  0  0  0  0  0  0
    0.9810  -26.0010    0.8040 C   0  0  0  0  0  0  0  0  0  0  0
    4.4600  -26.4040    0.5770 H   0  0  0  0  0  0  0  0  0  0  0
    6.0650  -28.0320   -0.2060 H   0  0  0  0  0  0  0  0  0  0  0
    4.9070  -23.0010   -2.2330 H   0  0  0  0  0  0  0  0  0  0  0
    1.4270  -21.3680   -0.7830 H   0  0  0  0  0  0  0  0  0  0  0
    0.8080  -23.4630    0.2550 H   0  0  0  0  0  0  0  0  0  0  0
    4.7840  -23.3740   -5.2040 H   0  0  0  0  0  0  0  0  0  0  0
    4.9250  -22.3160   -7.3710 H   0  0  0  0  0  0  0  0  0  0  0
    6.3750  -23.2360   -9.0840 H   0  0  0  0  0  0  0  0  0  0  0
    7.6960  -25.2160   -8.6160 H   0  0  0  0  0  0  0  0  0  0  0
    7.5610  -26.2820   -6.4500 H   0  0  0  0  0  0  0  0  0  0  0
    0.9800  -27.0370    1.1400 H   0  0  0  0  0  0  0  0  0  0  0
    0.8410  -25.3510    1.6690 H   0  0  0  0  0  0  0  0  0  0  0
    0.1610  -25.8570    0.0990 H   0  0  0  0  0  0  0  0  0  0  0
  1  2  1  0  0  0  0
  1  5  1  0  0  0  0
  1 23  1  0  0  0  0
  2  3  1  0  0  0  0
  2 24  1  0  0  0  0
  3  4  1  0  0  0  0
  3  9  2  0  0  0  0
  4  5  2  0  0  0  0
  4  6  1  0  0  0  0
  5 10  1  0  0  0  0
  6  7  2  0  0  0  0
  7  8  1  0  0  0  0
  8 16  2  0  0  0  0
  8 20  1  0  0  0  0
 10 11  2  0  0  0  0
 10 15  1  0  0  0  0
 11 12  1  0  0  0  0
 11 25  1  0  0  0  0
 12 13  2  0  0  0  0
 13 14  1  0  0  0  0
 13 26  1  0  0  0  0
 14 15  2  0  0  0  0
 14 27  1  0  0  0  0
 15 21  1  0  0  0  0
 16 17  1  0  0  0  0
 16 28  1  0  0  0  0
 17 18  2  0  0  0  0
 17 29  1  0  0  0  0
 18 19  1  0  0  0  0
 18 30  1  0  0  0  0
 19 20  2  0  0  0  0
 19 31  1  0  0  0  0
 20 32  1  0  0  0  0
 21 22  1  0  0  0  0
 22 33  1  0  0  0  0
 22 34  1  0  0  0  0
 22 35  1  0  0  0  0
M  END
> <From>
www.bindingDB.org

> <BindingDB Reactant_set_id>
50910188

> <Ligand InChI>
InChI=1S/C15H13N5O2/c1-22-12-7-8-16-9-11(12)13-14(15(21)20-18-13)19-17-10-5-3-2-4-6-10/h2-9H,1H3,(H2,18,20,21)

> <Ligand InChI Key>
NPLOHUPMKKUYFK-UHFFFAOYSA-N

> <BindingDB MonomerID>
50313061

> <BindingDB Ligand Name>
(Z)-3-(4-methoxypyridin-3-yl)-4-(2-phenylhydrazono)-1H-pyrazol-5(4H)-one::CHEMBL1086736

> <Target Name Assigned by Curator or DataSource>
Cyclin-dependent kinase 2

> <Target Source Organism According to Curator or DataSource>
Homo sapiens

> <Ki (nM)>
 76

> <IC50 (nM)>


> <Kd (nM)>


> <EC50 (nM)>


> <kon (M-1-s-1)>


> <koff (s-1)>


> <pH>


> <Temp C>


> <Curation/DataSource>
ChEMBL

> <Article DOI>
10.1016/j.bmcl.2010.01.072

> <PMID>
20138514

> <PubChem AID>


> <Patent Number>


> <Authors>
Arnost, M; Pierce, A; ter Haar, E; Lauffer, D; Madden, J; Tanner, K; Green, J

> <Institution>
Vertex Pharmaceuticals Inc

> <Link to Ligand in BindingDB>
http://www.bindingdb.org/bind/chemsearch/marvin/MolStructure.jsp?monomerid=50313061

> <Link to Ligand-Target Pair in BindingDB>
http://www.bindingdb.org/jsp/dbsearch/PrimarySearch_ki.jsp?energyterm=kJ/mole&tag=pol&polymerid=796&target=Cyclin-dependent+kinase+2&column=ki&startPg=0&Increment=50&submit=Search

> <Link to Ligand-Target Pair in BindingDB>
http://www.bindingdb.org/jsp/dbsearch/PrimarySearch_ki.jsp?energyterm=kJ/mole&tag=r21&monomerid=50313061&enzyme=Cyclin-dependent+kinase+2&column=ki&startPg=0&Increment=50&submit=Search

> <Ligand HET ID in PDB>


> <PDB ID(s) for Ligand-Target Complex>


> <PubChem CID>
46880951

> <PubChem SID>
104147422

> <ChEBI ID of Ligand>


> <ChEMBL ID of Ligand>
CHEMBL1086736

> <DrugBank ID of Ligand>


> <IUPHAR_GRAC ID of Ligand>


> <KEGG ID of Ligand>


> <ZINC ID of Ligand>
ZINC49049758

> <Number of Protein Chains in Target (bigger than 1 implies a multichain complex)>
1

> <BindingDB Target Chain Sequence>
MENFQKVEKIGEGTYGVVYKARNKLTGEVVALKKIRLDTETEGVPSTAIREISLLKELNHPNIVKLLDVIHTENKLYLVFEFLHQDLKKFMDASALTGIPLPLIKSYLFQLLQGLAFCHSHRVLHRDLKPQNLLINTEGAIKLADFGLARAFGVPVRTYTHEVVTLWYRAPEILLGCKYYSTAVDIWSLGCIFAEMVTRRALFPGDSEIDQLFRIFRTLGTPDEVVWPGVTSMPDYKPSFPKWARQDFSKVVPPLDEDGRSLLSQMLHYDPNKRISAKAALAHPFFQDVTKPVPHLRL

> <PDB ID(s) of Target Chain>
1CKP,1DI8,1DM2,1E1V,1E1X,1E9H,1F5Q,1FIN,1FQ1,1FVT,1FVV,1G5S,1GIH,1GY3,1GZ8,1H00,1H01,1H07,1H08,1H0V,1H0W,1H1P,1H1Q,1H1R,1H1S,1H24,1H25,1H26,1H27,1H28,1HCK,1HCL,1JST,1JSU,1JSV,1JVP,1KE5,1KE6,1KE7,1KE8,1KE9,1OGU,1OI9,1OIQ,1OIR,1OIU,1OIY,1OKV,1OKW,1OL1,1OL2,1P2A,1P5E,1PF8,1PKD,1PW2,1PXI,1PXJ,1PXK,1PXL,1PXM,1PXN,1PXO,1PXP,1PYE,1QMZ,1R78,1URC,1URW,1V1K,1VYW,1VYZ,1W0X,1W8C,1W98,1WCC,1Y8Y,1Y91,1YKR,2A0C,2A4L,2B52,2B53,2B54,2B55,2BHE,2BHH,2BKZ,2BPM,2BTR,2BTS,2C4G,2C5N,2C5O,2C5V,2C5X,2C5Y,2C68,2C69,2C6I,2C6K,2C6L,2C6M,2C6O,2C6T,2CCH,2CCI,2CJM,2CLX,2DUV,2EXM,2FVD,2G9X,2I40,2J9M,2JGZ,2R3F,2R3G,2R3H,2R3I,2R3J,2R3K,2R3L,2R3M,2R3N,2R3O,2R3P,2R3Q,2R3R,2R64,2UUE,2UZB,2UZD,2UZE,2UZL,2UZN,2UZO,2V0D,2V22,2VTA,2VTH,2VTI,2VTJ,2VTL,2VTM,2VTN,2VTO,2VTP,2VTQ,2VTR,2VTS,2VTT,2VU3,2VV9,2W05,2W06,2W17,2W1H,2WEV,2WFY,2WHB,2WIH,2WIP,2WMA,2WMB,2WPA,2WXV,2X1N,2XMY,2XNB,3BHT,3BHU,3BHV,3DDP,3DDQ,3DOG,3EID,3EJ1,3EOC,3EZR,3EZV,3F5X,3FZ1,3IG7,3IGG,3LE6,3LFN,3LFQ,3LFS,3MY5,3NS9,3PJ8,3PXF,3PXQ,3PXR,3PXY,3PXZ,3PY0,3PY1,3QHR,3QHW,3QL8,3QQF,3QQG,3QQH,3QQJ,3QQK,3QQL,3QRT,3QRU,3QTQ,3QTR,3QTS,3QTU,3QTW,3QTX,3QTZ,3QU0,3QWJ,3QWK,3QX2,3QX4,3QXO,3QXP,3QZF,3QZG,3QZH,3QZI,3R1Q,3R1S,3R1Y,3R28,3R6X,3R71,3R73,3R7E,3R7I,3R7U,3R7V,3R7Y,3R83,3R8L,3R8M,3R8P,3R8U,3R8V,3R8Z,3R9D,3R9H,3R9N,3R9O,3RAH,3RAI,3RAK,3RAL,3RJC,3RK5,3RK7,3RK9,3RKB,3RM6,3RM7,3RMF,3RNI,3ROY,3RPO,3RPR,3RPV,3RPY,3RZB,3S00,3S0O,3S1H,3S2P,3SQQ,3SW4,3SW7,3TI1,3TIY,3TIZ,3TNW,3ULI,3UNJ,3UNK,3WBL,4ACM,4BCK,4BCM,4BCN,4BCO,4BCP,4BCQ,4BGH,4BZD,4CFM,4CFN,4CFU,4CFV,4CFW,4CFX,4D1X,4D1Z,4EK3,4EK4,4EK5,4EK6,4EK8,4EOQ,4EOR,4EOS,4ERW,4EZ3,4EZ7,4FKG,4FKI,4FKJ,4FKL,4FKO,4FKP,4FKQ,4FKR,4FKS,4FKT,4FKU,4FKV,4FKW,4FX3,4GCJ,4I3Z,4II5,4KD1,4LYN,4NJ3,4RJ3,5A14,5AND,5ANE,5ANG,5ANI,5ANJ,5ANK,5ANO,5CYI,5D1J,5FP5,5FP6,5IEV,5IEX,5IEY,5IF1,5JQ5,5JQ8,5K4J,5L2W,5LMK,5MHQ,5NEV,5OO0,5OSJ,5UQ1,5UQ2,5UQ3,6ATH,6GUB,6GUC,6GUE,6GUF,6GUH,6GUK,6GVA,6INL,6JGM,6OQI,6P3W,6Q3B,6Q3C,6Q3F,6Q48,6Q49,6Q4A,6Q4B,6Q4C,6Q4D,6Q4E,6Q4F,6Q4H,6Q4J,6Q4K,6RIJ,6SG4,7ACK,7B5L,7B5R,7B7S,7E34,7KJS,7M2F,7NVQ

> <UniProt (SwissProt) Recommended Name of Target Chain>
Cyclin-dependent kinase 2

> <UniProt (SwissProt) Entry Name of Target Chain>
CDK2_HUMAN

> <UniProt (SwissProt) Primary ID of Target Chain>
P24941

> <UniProt (SwissProt) Secondary ID(s) of Target Chain>
A8K7C6,O75100

> <UniProt (SwissProt) Alternative ID(s) of Target Chain>


> <UniProt (TrEMBL) Submitted Name of Target Chain>


> <UniProt (TrEMBL) Entry Name of Target Chain>


> <UniProt (TrEMBL) Primary ID of Target Chain>
A0A024RB77

> <UniProt (TrEMBL) Secondary ID(s) of Target Chain>


> <UniProt (TrEMBL) Alternative ID(s) of Target Chain>


$$$$
9-Nitropaullone

Vconf v2.0 Academic SN VC001-00000579
 33 36  0  0  0  0  0  0  0  0999 V2000
    1.1810    2.8830   -0.2130 C   0  0  0  0  0  0  0  0  0  0  0
    1.3070    1.7610    0.7180 C   0  0  0  0  0  0  0  0  0  0  0
    2.1240    3.1050   -1.0020 O   0  0  0  0  0  0  0  0  0  0  0
    0.2030    3.8110   -0.1490 N   0  0  0  0  0  0  0  0  0  0  0
   -1.6860    2.6450    1.0210 C   0  0  0  0  0  0  0  0  0  0  0
   -1.0000    3.7810    0.4950 C   0  0  0  0  0  0  0  0  0  0  0
   -1.6340    5.0420    0.5220 C   0  0  0  0  0  0  0  0  0  0  0
   -2.9120    5.2040    1.0730 C   0  0  0  0  0  0  0  0  0  0  0
   -3.5900    4.0950    1.5890 C   0  0  0  0  0  0  0  0  0  0  0
   -2.9870    2.8290    1.5510 C   0  0  0  0  0  0  0  0  0  0  0
    0.1250    0.8970    0.7470 C   0  0  0  0  0  0  0  0  0  0  0
   -1.1910    1.3160    0.9710 C   0  0  0  0  0  0  0  0  0  0  0
   -1.9480    0.2080    1.1260 N   0  0  0  0  0  0  0  0  0  0  0
    0.1120   -0.4950    0.7290 C   0  0  0  0  0  0  0  0  0  0  0
   -1.1970   -0.8900    0.9700 C   0  0  0  0  0  0  0  0  0  0  0
    0.8140   -2.8260    0.6090 C   0  0  0  0  0  0  0  0  0  0  0
    1.1330   -1.4450    0.5560 C   0  0  0  0  0  0  0  0  0  0  0
   -1.5480   -2.2450    1.0300 C   0  0  0  0  0  0  0  0  0  0  0
   -0.5340   -3.2050    0.8450 C   0  0  0  0  0  0  0  0  0  0  0
    1.7870   -3.7720    0.4370 N   0  3  0  0  0  0  0  0  0  0  0
    1.5430   -4.9500    0.4760 O   0  0  0  0  0  0  0  0  0  0  0
    2.9380   -3.4740    0.2390 O   0  5  0  0  0  0  0  0  0  0  0
    1.4480    2.1730    1.7170 H   0  0  0  0  0  0  0  0  0  0  0
    2.1960    1.1810    0.4640 H   0  0  0  0  0  0  0  0  0  0  0
    0.3930    4.6260   -0.6410 H   0  0  0  0  0  0  0  0  0  0  0
   -1.1610    5.8590    0.1330 H   0  0  0  0  0  0  0  0  0  0  0
   -3.3500    6.1260    1.0900 H   0  0  0  0  0  0  0  0  0  0  0
   -4.5250    4.2050    1.9840 H   0  0  0  0  0  0  0  0  0  0  0
   -3.5130    2.0380    1.9260 H   0  0  0  0  0  0  0  0  0  0  0
   -2.9020    0.2050    1.2970 H   0  0  0  0  0  0  0  0  0  0  0
    2.0940   -1.1420    0.3920 H   0  0  0  0  0  0  0  0  0  0  0
   -2.5120   -2.5290    1.2070 H   0  0  0  0  0  0  0  0  0  0  0
   -0.7810   -4.1950    0.8870 H   0  0  0  0  0  0  0  0  0  0  0
  1  2  1  0  0  0  0
  1  3  2  0  0  0  0
  1  4  1  0  0  0  0
  2 11  1  0  0  0  0
  2 23  1  0  0  0  0
  2 24  1  0  0  0  0
  4  6  1  0  0  0  0
  4 25  1  0  0  0  0
  5  6  1  0  0  0  0
  5 10  2  0  0  0  0
  5 12  1  0  0  0  0
  6  7  2  0  0  0  0
  7  8  1  0  0  0  0
  7 26  1  0  0  0  0
  8  9  2  0  0  0  0
  8 27  1  0  0  0  0
  9 10  1  0  0  0  0
  9 28  1  0  0  0  0
 10 29  1  0  0  0  0
 11 12  2  0  0  0  0
 11 14  1  0  0  0  0
 12 13  1  0  0  0  0
 13 15  1  0  0  0  0
 13 30  1  0  0  0  0
 14 15  1  0  0  0  0
 14 17  2  0  0  0  0
 15 18  2  0  0  0  0
 16 17  1  0  0  0  0
 16 19  2  0  0  0  0
 16 20  1  0  0  0  0
 17 31  1  0  0  0  0
 18 19  1  0  0  0  0
 18 32  1  0  0  0  0
 19 33  1  0  0  0  0
 20 21  2  0  0  0  0
 20 22  1  0  0  0  0
M  CHG  1  20   1
M  CHG  1  22  -1
M  END
> <From>
www.bindingDB.org

> <BindingDB Reactant_set_id>
184848

> <Ligand InChI>
InChI=1S/C16H11N3O3/c20-15-8-12-11-7-9(19(21)22)5-6-14(11)18-16(12)10-3-1-2-4-13(10)17-15/h1-7,18H,8H2,(H,17,20)

> <Ligand InChI Key>
OLUKILHGKRVDCT-UHFFFAOYSA-N

> <BindingDB MonomerID>
7262

> <BindingDB Ligand Name>
14-nitro-8,18-diazatetracyclo[9.7.0.0^{2,7}.0^{12,17}]octadeca-1(11),2,4,6,12(17),13,15-heptaen-9-one::9-Nitropaullone::BDBM84528::CHEMBL50894::NSC 705701::Paullone Analog 1::alsterpaullone

> <Target Name Assigned by Curator or DataSource>
Cyclin-dependent kinase 2

> <Target Source Organism According to Curator or DataSource>
Homo sapiens

> <Ki (nM)>
 80

> <IC50 (nM)>


> <Kd (nM)>


> <EC50 (nM)>


> <kon (M-1-s-1)>


> <koff (s-1)>


> <pH>


> <Temp C>


> <Curation/DataSource>
PDSP Ki

> <Article DOI>
10.1042/BJ20021535

> <PMID>
12534346

> <PubChem AID>


> <Patent Number>


> <Authors>
Bain, J; McLauchlan, H; Elliott, M; Cohen, P

> <Institution>
University of Dundee

> <Link to Ligand in BindingDB>
http://www.bindingdb.org/bind/chemsearch/marvin/MolStructure.jsp?monomerid=7262

> <Link to Ligand-Target Pair in BindingDB>
http://www.bindingdb.org/jsp/dbsearch/PrimarySearch_ki.jsp?energyterm=kJ/mole&tag=pol&polymerid=796&target=Cyclin-dependent+kinase+2&column=ki&startPg=0&Increment=50&submit=Search

> <Link to Ligand-Target Pair in BindingDB>
http://www.bindingdb.org/jsp/dbsearch/PrimarySearch_ki.jsp?energyterm=kJ/mole&tag=r21&monomerid=7262&enzyme=Cyclin-dependent+kinase+2&column=ki&startPg=0&Increment=50&submit=Search

> <Ligand HET ID in PDB>
ATU

> <PDB ID(s) for Ligand-Target Complex>
1Q3W

> <PubChem CID>
5005498

> <PubChem SID>
8036818

> <ChEBI ID of Ligand>


> <ChEMBL ID of Ligand>
CHEMBL50894

> <DrugBank ID of Ligand>
DB04014

> <IUPHAR_GRAC ID of Ligand>
5925

> <KEGG ID of Ligand>


> <ZINC ID of Ligand>
ZINC00023894

> <Number of Protein Chains in Target (bigger than 1 implies a multichain complex)>
1

> <BindingDB Target Chain Sequence>
MENFQKVEKIGEGTYGVVYKARNKLTGEVVALKKIRLDTETEGVPSTAIREISLLKELNHPNIVKLLDVIHTENKLYLVFEFLHQDLKKFMDASALTGIPLPLIKSYLFQLLQGLAFCHSHRVLHRDLKPQNLLINTEGAIKLADFGLARAFGVPVRTYTHEVVTLWYRAPEILLGCKYYSTAVDIWSLGCIFAEMVTRRALFPGDSEIDQLFRIFRTLGTPDEVVWPGVTSMPDYKPSFPKWARQDFSKVVPPLDEDGRSLLSQMLHYDPNKRISAKAALAHPFFQDVTKPVPHLRL

> <PDB ID(s) of Target Chain>
1CKP,1DI8,1DM2,1E1V,1E1X,1E9H,1F5Q,1FIN,1FQ1,1FVT,1FVV,1G5S,1GIH,1GY3,1GZ8,1H00,1H01,1H07,1H08,1H0V,1H0W,1H1P,1H1Q,1H1R,1H1S,1H24,1H25,1H26,1H27,1H28,1HCK,1HCL,1JST,1JSU,1JSV,1JVP,1KE5,1KE6,1KE7,1KE8,1KE9,1OGU,1OI9,1OIQ,1OIR,1OIU,1OIY,1OKV,1OKW,1OL1,1OL2,1P2A,1P5E,1PF8,1PKD,1PW2,1PXI,1PXJ,1PXK,1PXL,1PXM,1PXN,1PXO,1PXP,1PYE,1QMZ,1R78,1URC,1URW,1V1K,1VYW,1VYZ,1W0X,1W8C,1W98,1WCC,1Y8Y,1Y91,1YKR,2A0C,2A4L,2B52,2B53,2B54,2B55,2BHE,2BHH,2BKZ,2BPM,2BTR,2BTS,2C4G,2C5N,2C5O,2C5V,2C5X,2C5Y,2C68,2C69,2C6I,2C6K,2C6L,2C6M,2C6O,2C6T,2CCH,2CCI,2CJM,2CLX,2DUV,2EXM,2FVD,2G9X,2I40,2J9M,2JGZ,2R3F,2R3G,2R3H,2R3I,2R3J,2R3K,2R3L,2R3M,2R3N,2R3O,2R3P,2R3Q,2R3R,2R64,2UUE,2UZB,2UZD,2UZE,2UZL,2UZN,2UZO,2V0D,2V22,2VTA,2VTH,2VTI,2VTJ,2VTL,2VTM,2VTN,2VTO,2VTP,2VTQ,2VTR,2VTS,2VTT,2VU3,2VV9,2W05,2W06,2W17,2W1H,2WEV,2WFY,2WHB,2WIH,2WIP,2WMA,2WMB,2WPA,2WXV,2X1N,2XMY,2XNB,3BHT,3BHU,3BHV,3DDP,3DDQ,3DOG,3EID,3EJ1,3EOC,3EZR,3EZV,3F5X,3FZ1,3IG7,3IGG,3LE6,3LFN,3LFQ,3LFS,3MY5,3NS9,3PJ8,3PXF,3PXQ,3PXR,3PXY,3PXZ,3PY0,3PY1,3QHR,3QHW,3QL8,3QQF,3QQG,3QQH,3QQJ,3QQK,3QQL,3QRT,3QRU,3QTQ,3QTR,3QTS,3QTU,3QTW,3QTX,3QTZ,3QU0,3QWJ,3QWK,3QX2,3QX4,3QXO,3QXP,3QZF,3QZG,3QZH,3QZI,3R1Q,3R1S,3R1Y,3R28,3R6X,3R71,3R73,3R7E,3R7I,3R7U,3R7V,3R7Y,3R83,3R8L,3R8M,3R8P,3R8U,3R8V,3R8Z,3R9D,3R9H,3R9N,3R9O,3RAH,3RAI,3RAK,3RAL,3RJC,3RK5,3RK7,3RK9,3RKB,3RM6,3RM7,3RMF,3RNI,3ROY,3RPO,3RPR,3RPV,3RPY,3RZB,3S00,3S0O,3S1H,3S2P,3SQQ,3SW4,3SW7,3TI1,3TIY,3TIZ,3TNW,3ULI,3UNJ,3UNK,3WBL,4ACM,4BCK,4BCM,4BCN,4BCO,4BCP,4BCQ,4BGH,4BZD,4CFM,4CFN,4CFU,4CFV,4CFW,4CFX,4D1X,4D1Z,4EK3,4EK4,4EK5,4EK6,4EK8,4EOQ,4EOR,4EOS,4ERW,4EZ3,4EZ7,4FKG,4FKI,4FKJ,4FKL,4FKO,4FKP,4FKQ,4FKR,4FKS,4FKT,4FKU,4FKV,4FKW,4FX3,4GCJ,4I3Z,4II5,4KD1,4LYN,4NJ3,4RJ3,5A14,5AND,5ANE,5ANG,5ANI,5ANJ,5ANK,5ANO,5CYI,5D1J,5FP5,5FP6,5IEV,5IEX,5IEY,5IF1,5JQ5,5JQ8,5K4J,5L2W,5LMK,5MHQ,5NEV,5OO0,5OSJ,5UQ1,5UQ2,5UQ3,6ATH,6GUB,6GUC,6GUE,6GUF,6GUH,6GUK,6GVA,6INL,6JGM,6OQI,6P3W,6Q3B,6Q3C,6Q3F,6Q48,6Q49,6Q4A,6Q4B,6Q4C,6Q4D,6Q4E,6Q4F,6Q4H,6Q4J,6Q4K,6RIJ,6SG4,7ACK,7B5L,7B5R,7B7S,7E34,7KJS,7M2F,7NVQ

> <UniProt (SwissProt) Recommended Name of Target Chain>
Cyclin-dependent kinase 2

> <UniProt (SwissProt) Entry Name of Target Chain>
CDK2_HUMAN

> <UniProt (SwissProt) Primary ID of Target Chain>
P24941

> <UniProt (SwissProt) Secondary ID(s) of Target Chain>
A8K7C6,O75100

> <UniProt (SwissProt) Alternative ID(s) of Target Chain>


> <UniProt (TrEMBL) Submitted Name of Target Chain>


> <UniProt (TrEMBL) Entry Name of Target Chain>


> <UniProt (TrEMBL) Primary ID of Target Chain>
A0A024RB77

> <UniProt (TrEMBL) Secondary ID(s) of Target Chain>


> <UniProt (TrEMBL) Alternative ID(s) of Target Chain>


$$$$
ttt_mol_1

Vconf v2.1
 38 41  0  0  0  0  0  0  0  0999 V2000
   26.0010  -11.9650    0.6650 C   0  0  0  0  0  0  0  0  0  0  0
   27.0720  -11.2250    0.7100 C   0  0  0  0  0  0  0  0  0  0  0
   26.9610   -9.8290    0.6980 C   0  0  0  0  0  0  0  0  0  0  0
   28.1040   -9.0080    0.7570 C   0  0  0  0  0  0  0  0  0  0  0
   29.4200   -9.5750    0.8300 C   0  0  0  0  0  0  0  0  0  0  0
   29.5120  -11.0020    0.8230 C   0  0  0  0  0  0  0  0  0  0  0
   28.3490  -11.8020    0.7700 C   0  0  0  0  0  0  0  0  0  0  0
   25.0610  -12.6260    0.6270 N   0  0  0  0  0  0  0  0  0  0  0
   34.0550   -7.8450    1.3470 C   0  0  0  0  0  0  0  0  0  0  0
   32.6710   -8.0380    1.1470 C   0  0  0  0  0  0  0  0  0  0  0
   31.8720   -6.9800    0.7390 C   0  0  0  0  0  0  0  0  0  0  0
   32.3820   -5.6980    0.5220 C   0  0  0  0  0  0  0  0  0  0  0
   33.7590   -5.5230    0.7330 C   0  0  0  0  0  0  0  0  0  0  0
   34.5200   -6.5810    1.1240 N   0  0  0  0  0  0  0  0  0  0  0
   30.5960   -8.7470    0.8950 C   0  0  0  0  0  0  0  0  0  0  0
   31.8620   -9.1030    1.2320 N   0  0  0  0  0  0  0  0  0  0  0
   30.6190   -7.4270    0.6010 N   0  0  0  0  0  0  0  0  0  0  0
   34.8830   -8.8460    1.7690 N   0  0  0  0  0  0  0  0  0  0  0
   38.2550   -7.6990    1.1070 C   0  0  0  0  0  0  0  0  0  0  0
   36.9090   -7.7860    1.1420 N   0  0  0  0  0  0  0  0  0  0  0
   36.2490   -8.7850    1.7840 C   0  0  0  0  0  0  0  0  0  0  0
   37.0110   -9.7740    2.4370 C   0  0  0  0  0  0  0  0  0  0  0
   38.4140   -9.6470    2.4320 C   0  0  0  0  0  0  0  0  0  0  0
   38.9910   -8.6250    1.7600 N   0  0  0  0  0  0  0  0  0  0  0
   39.2890  -10.5750    3.1600 C   0  0  0  0  0  0  0  0  0  0  0
   30.9560  -11.9010    0.7870 Cl  0  0  0  0  0  0  0  0  0  0  0
   27.7400   -7.3450    0.7950 Cl  0  0  0  0  0  0  0  0  0  0  0
   26.0320   -9.4050    0.6540 H   0  0  0  0  0  0  0  0  0  0  0
   28.4240  -12.8270    0.7640 H   0  0  0  0  0  0  0  0  0  0  0
   31.7880   -4.9300    0.2170 H   0  0  0  0  0  0  0  0  0  0  0
   34.1890   -4.6090    0.5950 H   0  0  0  0  0  0  0  0  0  0  0
   32.1440   -9.9880    1.5000 H   0  0  0  0  0  0  0  0  0  0  0
   34.4700   -9.6630    2.0880 H   0  0  0  0  0  0  0  0  0  0  0
   38.7140   -6.9430    0.6000 H   0  0  0  0  0  0  0  0  0  0  0
   36.5640  -10.5490    2.9280 H   0  0  0  0  0  0  0  0  0  0  0
   40.3320  -10.2740    3.0370 H   0  0  0  0  0  0  0  0  0  0  0
   39.0460  -10.5530    4.2220 H   0  0  0  0  0  0  0  0  0  0  0
   39.1680  -11.5890    2.7810 H   0  0  0  0  0  0  0  0  0  0  0
  1  2  1  0  0  0  0
  1  8  3  0  0  0  0
  2  3  1  0  0  0  0
  2  7  2  0  0  0  0
  3  4  2  0  0  0  0
  3 28  1  0  0  0  0
  4  5  1  0  0  0  0
  4 27  1  0  0  0  0
  5  6  2  0  0  0  0
  5 15  1  0  0  0  0
  6  7  1  0  0  0  0
  6 26  1  0  0  0  0
  7 29  1  0  0  0  0
  9 10  1  0  0  0  0
  9 14  2  0  0  0  0
  9 18  1  0  0  0  0
 10 11  2  0  0  0  0
 10 16  1  0  0  0  0
 11 12  1  0  0  0  0
 11 17  1  0  0  0  0
 12 13  2  0  0  0  0
 12 30  1  0  0  0  0
 13 14  1  0  0  0  0
 13 31  1  0  0  0  0
 15 16  1  0  0  0  0
 15 17  2  0  0  0  0
 16 32  1  0  0  0  0
 18 21  1  0  0  0  0
 18 33  1  0  0  0  0
 19 20  1  0  0  0  0
 19 24  2  0  0  0  0
 19 34  1  0  0  0  0
 20 21  2  0  0  0  0
 21 22  1  0  0  0  0
 22 23  2  0  0  0  0
 22 35  1  0  0  0  0
 23 24  1  0  0  0  0
 23 25  1  0  0  0  0
 25 36  1  0  0  0  0
 25 37  1  0  0  0  0
 25 38  1  0  0  0  0
M  END
> <From>
www.bindingDB.org

> <BindingDB Reactant_set_id>
50839928

> <Ligand InChI>
InChI=1S/C18H11Cl2N7/c1-9-4-14(24-8-23-9)26-18-16-13(2-3-22-18)25-17(27-16)15-11(19)5-10(7-21)6-12(15)20/h2-6,8H,1H3,(H,25,27)(H,22,23,24,26)

> <Ligand InChI Key>
YFSPSGACYXXNNF-UHFFFAOYSA-N

> <BindingDB MonomerID>
50261273

> <BindingDB Ligand Name>
CHEMBL4076947

> <Target Name Assigned by Curator or DataSource>
Cyclin-dependent kinase 2

> <Target Source Organism According to Curator or DataSource>
Homo sapiens

> <Ki (nM)>
 89

> <IC50 (nM)>


> <Kd (nM)>


> <EC50 (nM)>


> <kon (M-1-s-1)>


> <koff (s-1)>


> <pH>


> <Temp C>


> <Curation/DataSource>
ChEMBL

> <Article DOI>
10.1016/j.bmcl.2017.08.022

> <PMID>
28830649

> <PubChem AID>


> <Patent Number>


> <Authors>
Liang, J; Van Abbema, A; Balazs, M; Barrett, K; Berezhkovsky, L; Blair, WS; Chang, C; Delarosa, D; DeVoss, J; Driscoll, J; Eigenbrot, C; Goodacre, S; Ghilardi, N; MacLeod, C; Johnson, A; Bir Kohli, P; Lai, Y; Lin, Z; Mantik, P; Menghrajani, K; Nguyen, H; Peng, I; Sambrone, A; Shia, S; Smith, J; Sohn, S; Tsui, V; Ultsch, M; Williams, K; Wu, LC; Yang, W; Zhang, B; Magnuson, S

> <Institution>
Genentech

> <Link to Ligand in BindingDB>
http://www.bindingdb.org/bind/chemsearch/marvin/MolStructure.jsp?monomerid=50261273

> <Link to Ligand-Target Pair in BindingDB>
http://www.bindingdb.org/jsp/dbsearch/PrimarySearch_ki.jsp?energyterm=kJ/mole&tag=pol&polymerid=796&target=Cyclin-dependent+kinase+2&column=ki&startPg=0&Increment=50&submit=Search

> <Link to Ligand-Target Pair in BindingDB>
http://www.bindingdb.org/jsp/dbsearch/PrimarySearch_ki.jsp?energyterm=kJ/mole&tag=r21&monomerid=50261273&enzyme=Cyclin-dependent+kinase+2&column=ki&startPg=0&Increment=50&submit=Search

> <Ligand HET ID in PDB>


> <PDB ID(s) for Ligand-Target Complex>


> <PubChem CID>
67383875

> <PubChem SID>
404340670

> <ChEBI ID of Ligand>


> <ChEMBL ID of Ligand>


> <DrugBank ID of Ligand>


> <IUPHAR_GRAC ID of Ligand>


> <KEGG ID of Ligand>


> <ZINC ID of Ligand>


> <Number of Protein Chains in Target (bigger than 1 implies a multichain complex)>
1

> <BindingDB Target Chain Sequence>
MENFQKVEKIGEGTYGVVYKARNKLTGEVVALKKIRLDTETEGVPSTAIREISLLKELNHPNIVKLLDVIHTENKLYLVFEFLHQDLKKFMDASALTGIPLPLIKSYLFQLLQGLAFCHSHRVLHRDLKPQNLLINTEGAIKLADFGLARAFGVPVRTYTHEVVTLWYRAPEILLGCKYYSTAVDIWSLGCIFAEMVTRRALFPGDSEIDQLFRIFRTLGTPDEVVWPGVTSMPDYKPSFPKWARQDFSKVVPPLDEDGRSLLSQMLHYDPNKRISAKAALAHPFFQDVTKPVPHLRL

> <PDB ID(s) of Target Chain>
1CKP,1DI8,1DM2,1E1V,1E1X,1E9H,1F5Q,1FIN,1FQ1,1FVT,1FVV,1G5S,1GIH,1GY3,1GZ8,1H00,1H01,1H07,1H08,1H0V,1H0W,1H1P,1H1Q,1H1R,1H1S,1H24,1H25,1H26,1H27,1H28,1HCK,1HCL,1JST,1JSU,1JSV,1JVP,1KE5,1KE6,1KE7,1KE8,1KE9,1OGU,1OI9,1OIQ,1OIR,1OIU,1OIY,1OKV,1OKW,1OL1,1OL2,1P2A,1P5E,1PF8,1PKD,1PW2,1PXI,1PXJ,1PXK,1PXL,1PXM,1PXN,1PXO,1PXP,1PYE,1QMZ,1R78,1URC,1URW,1V1K,1VYW,1VYZ,1W0X,1W8C,1W98,1WCC,1Y8Y,1Y91,1YKR,2A0C,2A4L,2B52,2B53,2B54,2B55,2BHE,2BHH,2BKZ,2BPM,2BTR,2BTS,2C4G,2C5N,2C5O,2C5V,2C5X,2C5Y,2C68,2C69,2C6I,2C6K,2C6L,2C6M,2C6O,2C6T,2CCH,2CCI,2CJM,2CLX,2DUV,2EXM,2FVD,2G9X,2I40,2J9M,2JGZ,2R3F,2R3G,2R3H,2R3I,2R3J,2R3K,2R3L,2R3M,2R3N,2R3O,2R3P,2R3Q,2R3R,2R64,2UUE,2UZB,2UZD,2UZE,2UZL,2UZN,2UZO,2V0D,2V22,2VTA,2VTH,2VTI,2VTJ,2VTL,2VTM,2VTN,2VTO,2VTP,2VTQ,2VTR,2VTS,2VTT,2VU3,2VV9,2W05,2W06,2W17,2W1H,2WEV,2WFY,2WHB,2WIH,2WIP,2WMA,2WMB,2WPA,2WXV,2X1N,2XMY,2XNB,3BHT,3BHU,3BHV,3DDP,3DDQ,3DOG,3EID,3EJ1,3EOC,3EZR,3EZV,3F5X,3FZ1,3IG7,3IGG,3LE6,3LFN,3LFQ,3LFS,3MY5,3NS9,3PJ8,3PXF,3PXQ,3PXR,3PXY,3PXZ,3PY0,3PY1,3QHR,3QHW,3QL8,3QQF,3QQG,3QQH,3QQJ,3QQK,3QQL,3QRT,3QRU,3QTQ,3QTR,3QTS,3QTU,3QTW,3QTX,3QTZ,3QU0,3QWJ,3QWK,3QX2,3QX4,3QXO,3QXP,3QZF,3QZG,3QZH,3QZI,3R1Q,3R1S,3R1Y,3R28,3R6X,3R71,3R73,3R7E,3R7I,3R7U,3R7V,3R7Y,3R83,3R8L,3R8M,3R8P,3R8U,3R8V,3R8Z,3R9D,3R9H,3R9N,3R9O,3RAH,3RAI,3RAK,3RAL,3RJC,3RK5,3RK7,3RK9,3RKB,3RM6,3RM7,3RMF,3RNI,3ROY,3RPO,3RPR,3RPV,3RPY,3RZB,3S00,3S0O,3S1H,3S2P,3SQQ,3SW4,3SW7,3TI1,3TIY,3TIZ,3TNW,3ULI,3UNJ,3UNK,3WBL,4ACM,4BCK,4BCM,4BCN,4BCO,4BCP,4BCQ,4BGH,4BZD,4CFM,4CFN,4CFU,4CFV,4CFW,4CFX,4D1X,4D1Z,4EK3,4EK4,4EK5,4EK6,4EK8,4EOQ,4EOR,4EOS,4ERW,4EZ3,4EZ7,4FKG,4FKI,4FKJ,4FKL,4FKO,4FKP,4FKQ,4FKR,4FKS,4FKT,4FKU,4FKV,4FKW,4FX3,4GCJ,4I3Z,4II5,4KD1,4LYN,4NJ3,4RJ3,5A14,5AND,5ANE,5ANG,5ANI,5ANJ,5ANK,5ANO,5CYI,5D1J,5FP5,5FP6,5IEV,5IEX,5IEY,5IF1,5JQ5,5JQ8,5K4J,5L2W,5LMK,5MHQ,5NEV,5OO0,5OSJ,5UQ1,5UQ2,5UQ3,6ATH,6GUB,6GUC,6GUE,6GUF,6GUH,6GUK,6GVA,6INL,6JGM,6OQI,6P3W,6Q3B,6Q3C,6Q3F,6Q48,6Q49,6Q4A,6Q4B,6Q4C,6Q4D,6Q4E,6Q4F,6Q4H,6Q4J,6Q4K,6RIJ,6SG4,7ACK,7B5L,7B5R,7B7S,7E34,7KJS,7M2F,7NVQ

> <UniProt (SwissProt) Recommended Name of Target Chain>
Cyclin-dependent kinase 2

> <UniProt (SwissProt) Entry Name of Target Chain>
CDK2_HUMAN

> <UniProt (SwissProt) Primary ID of Target Chain>
P24941

> <UniProt (SwissProt) Secondary ID(s) of Target Chain>
A8K7C6,O75100

> <UniProt (SwissProt) Alternative ID(s) of Target Chain>


> <UniProt (TrEMBL) Submitted Name of Target Chain>


> <UniProt (TrEMBL) Entry Name of Target Chain>


> <UniProt (TrEMBL) Primary ID of Target Chain>
A0A024RB77

> <UniProt (TrEMBL) Secondary ID(s) of Target Chain>


> <UniProt (TrEMBL) Alternative ID(s) of Target Chain>


$$$$
BindingDB_50313050_mol_1

Vconf v2.0 Academic SN VC001-00000579
 40 42  0  0  0  0  0  0  0  0999 V2000
   -2.9650   -5.3490    0.4990 N   0  0  0  0  0  0  0  0  0  0  0
   -1.9370   -6.1180    0.6740 N   0  0  0  0  0  0  0  0  0  0  0
   -0.9060   -5.3970    1.1320 C   0  0  0  0  0  0  0  0  0  0  0
   -1.3270   -4.0800    1.2540 C   0  0  0  0  0  0  0  0  0  0  0
   -2.6570   -4.0810    0.8270 C   0  0  0  0  0  0  0  0  0  0  0
   -0.5710   -3.0970    1.7040 N   0  0  0  0  0  0  0  0  0  0  0
   -0.9490   -1.9410    1.8460 N   0  0  0  0  0  0  0  0  0  0  0
   -0.2210   -0.9350    2.2860 C   0  0  0  0  0  0  0  0  0  0  0
    0.2270   -5.8490    1.4070 O   0  0  0  0  0  0  0  0  0  0  0
   -3.5570   -3.0030    0.7330 C   0  0  0  0  0  0  0  0  0  0  0
   -4.7750   -3.0380    1.4400 C   0  0  0  0  0  0  0  0  0  0  0
   -5.6810   -1.9670    1.3460 C   0  0  0  0  0  0  0  0  0  0  0
   -5.3900   -0.8490    0.5430 C   0  0  0  0  0  0  0  0  0  0  0
   -4.1750   -0.8190   -0.1720 C   0  0  0  0  0  0  0  0  0  0  0
   -3.2680   -1.8890   -0.0820 C   0  0  0  0  0  0  0  0  0  0  0
   -0.8470    0.3210    2.3930 C   0  0  0  0  0  0  0  0  0  0  0
   -0.1380    1.4490    2.8450 C   0  0  0  0  0  0  0  0  0  0  0
    1.2210    1.3090    3.1960 C   0  0  0  0  0  0  0  0  0  0  0
    1.8560    0.0600    3.0950 C   0  0  0  0  0  0  0  0  0  0  0
    1.1380   -1.0590    2.6420 C   0  0  0  0  0  0  0  0  0  0  0
   -6.3190    0.1510    0.5050 O   0  0  0  0  0  0  0  0  0  0  0
   -6.1230    1.3530   -0.2460 C   0  0  0  0  0  0  0  0  0  0  0
   -0.8250    2.6270    2.9170 O   0  0  0  0  0  0  0  0  0  0  0
   -0.2150    3.8470    3.3460 C   0  0  0  0  0  0  0  0  0  0  0
   -3.8300   -5.6410    0.1700 H   0  0  0  0  0  0  0  0  0  0  0
   -1.9120   -7.0720    0.5030 H   0  0  0  0  0  0  0  0  0  0  0
   -5.0090   -3.8370    2.0320 H   0  0  0  0  0  0  0  0  0  0  0
   -6.5580   -2.0010    1.8670 H   0  0  0  0  0  0  0  0  0  0  0
   -3.9440   -0.0190   -0.7610 H   0  0  0  0  0  0  0  0  0  0  0
   -2.3950   -1.8470   -0.6100 H   0  0  0  0  0  0  0  0  0  0  0
   -1.8320    0.4190    2.1380 H   0  0  0  0  0  0  0  0  0  0  0
    1.7530    2.1140    3.5250 H   0  0  0  0  0  0  0  0  0  0  0
    2.8400   -0.0350    3.3500 H   0  0  0  0  0  0  0  0  0  0  0
    1.6070   -1.9630    2.5710 H   0  0  0  0  0  0  0  0  0  0  0
   -6.9960    1.9940   -0.1210 H   0  0  0  0  0  0  0  0  0  0  0
   -5.2420    1.8850    0.1170 H   0  0  0  0  0  0  0  0  0  0  0
   -6.0040    1.1240   -1.3060 H   0  0  0  0  0  0  0  0  0  0  0
   -0.9600    4.6420    3.3180 H   0  0  0  0  0  0  0  0  0  0  0
    0.1550    3.7470    4.3670 H   0  0  0  0  0  0  0  0  0  0  0
    0.6080    4.1130    2.6800 H   0  0  0  0  0  0  0  0  0  0  0
  1  2  1  0  0  0  0
  1  5  1  0  0  0  0
  1 25  1  0  0  0  0
  2  3  1  0  0  0  0
  2 26  1  0  0  0  0
  3  4  1  0  0  0  0
  3  9  2  0  0  0  0
  4  5  2  0  0  0  0
  4  6  1  0  0  0  0
  5 10  1  0  0  0  0
  6  7  2  0  0  0  0
  7  8  1  0  0  0  0
  8 16  2  0  0  0  0
  8 20  1  0  0  0  0
 10 11  1  0  0  0  0
 10 15  2  0  0  0  0
 11 12  2  0  0  0  0
 11 27  1  0  0  0  0
 12 13  1  0  0  0  0
 12 28  1  0  0  0  0
 13 14  2  0  0  0  0
 13 21  1  0  0  0  0
 14 15  1  0  0  0  0
 14 29  1  0  0  0  0
 15 30  1  0  0  0  0
 16 17  1  0  0  0  0
 16 31  1  0  0  0  0
 17 18  2  0  0  0  0
 17 23  1  0  0  0  0
 18 19  1  0  0  0  0
 18 32  1  0  0  0  0
 19 20  2  0  0  0  0
 19 33  1  0  0  0  0
 20 34  1  0  0  0  0
 21 22  1  0  0  0  0
 22 35  1  0  0  0  0
 22 36  1  0  0  0  0
 22 37  1  0  0  0  0
 23 24  1  0  0  0  0
 24 38  1  0  0  0  0
 24 39  1  0  0  0  0
 24 40  1  0  0  0  0
M  END
> <From>
www.bindingDB.org

> <BindingDB Reactant_set_id>
50910145

> <Ligand InChI>
InChI=1S/C17H16N4O3/c1-23-13-8-6-11(7-9-13)15-16(17(22)21-19-15)20-18-12-4-3-5-14(10-12)24-2/h3-10H,1-2H3,(H2,19,21,22)

> <Ligand InChI Key>
AXEQDNRVEUBEKN-UHFFFAOYSA-N

> <BindingDB MonomerID>
50313050

> <BindingDB Ligand Name>
(Z)-3-(4-methoxyphenyl)-4-(2-(3-methoxyphenyl)hydrazono)-1H-pyrazol-5(4H)-one::CHEMBL1080902

> <Target Name Assigned by Curator or DataSource>
Cyclin-dependent kinase 2

> <Target Source Organism According to Curator or DataSource>
Homo sapiens

> <Ki (nM)>
 95

> <IC50 (nM)>


> <Kd (nM)>


> <EC50 (nM)>


> <kon (M-1-s-1)>


> <koff (s-1)>


> <pH>


> <Temp C>


> <Curation/DataSource>
ChEMBL

> <Article DOI>
10.1016/j.bmcl.2010.01.072

> <PMID>
20138514

> <PubChem AID>


> <Patent Number>


> <Authors>
Arnost, M; Pierce, A; ter Haar, E; Lauffer, D; Madden, J; Tanner, K; Green, J

> <Institution>
Vertex Pharmaceuticals Inc

> <Link to Ligand in BindingDB>
http://www.bindingdb.org/bind/chemsearch/marvin/MolStructure.jsp?monomerid=50313050

> <Link to Ligand-Target Pair in BindingDB>
http://www.bindingdb.org/jsp/dbsearch/PrimarySearch_ki.jsp?energyterm=kJ/mole&tag=pol&polymerid=796&target=Cyclin-dependent+kinase+2&column=ki&startPg=0&Increment=50&submit=Search

> <Link to Ligand-Target Pair in BindingDB>
http://www.bindingdb.org/jsp/dbsearch/PrimarySearch_ki.jsp?energyterm=kJ/mole&tag=r21&monomerid=50313050&enzyme=Cyclin-dependent+kinase+2&column=ki&startPg=0&Increment=50&submit=Search

> <Ligand HET ID in PDB>


> <PDB ID(s) for Ligand-Target Complex>


> <PubChem CID>
46865325

> <PubChem SID>
104147411

> <ChEBI ID of Ligand>


> <ChEMBL ID of Ligand>
CHEMBL1080902

> <DrugBank ID of Ligand>


> <IUPHAR_GRAC ID of Ligand>


> <KEGG ID of Ligand>


> <ZINC ID of Ligand>
ZINC49033769

> <Number of Protein Chains in Target (bigger than 1 implies a multichain complex)>
1

> <BindingDB Target Chain Sequence>
MENFQKVEKIGEGTYGVVYKARNKLTGEVVALKKIRLDTETEGVPSTAIREISLLKELNHPNIVKLLDVIHTENKLYLVFEFLHQDLKKFMDASALTGIPLPLIKSYLFQLLQGLAFCHSHRVLHRDLKPQNLLINTEGAIKLADFGLARAFGVPVRTYTHEVVTLWYRAPEILLGCKYYSTAVDIWSLGCIFAEMVTRRALFPGDSEIDQLFRIFRTLGTPDEVVWPGVTSMPDYKPSFPKWARQDFSKVVPPLDEDGRSLLSQMLHYDPNKRISAKAALAHPFFQDVTKPVPHLRL

> <PDB ID(s) of Target Chain>
1CKP,1DI8,1DM2,1E1V,1E1X,1E9H,1F5Q,1FIN,1FQ1,1FVT,1FVV,1G5S,1GIH,1GY3,1GZ8,1H00,1H01,1H07,1H08,1H0V,1H0W,1H1P,1H1Q,1H1R,1H1S,1H24,1H25,1H26,1H27,1H28,1HCK,1HCL,1JST,1JSU,1JSV,1JVP,1KE5,1KE6,1KE7,1KE8,1KE9,1OGU,1OI9,1OIQ,1OIR,1OIU,1OIY,1OKV,1OKW,1OL1,1OL2,1P2A,1P5E,1PF8,1PKD,1PW2,1PXI,1PXJ,1PXK,1PXL,1PXM,1PXN,1PXO,1PXP,1PYE,1QMZ,1R78,1URC,1URW,1V1K,1VYW,1VYZ,1W0X,1W8C,1W98,1WCC,1Y8Y,1Y91,1YKR,2A0C,2A4L,2B52,2B53,2B54,2B55,2BHE,2BHH,2BKZ,2BPM,2BTR,2BTS,2C4G,2C5N,2C5O,2C5V,2C5X,2C5Y,2C68,2C69,2C6I,2C6K,2C6L,2C6M,2C6O,2C6T,2CCH,2CCI,2CJM,2CLX,2DUV,2EXM,2FVD,2G9X,2I40,2J9M,2JGZ,2R3F,2R3G,2R3H,2R3I,2R3J,2R3K,2R3L,2R3M,2R3N,2R3O,2R3P,2R3Q,2R3R,2R64,2UUE,2UZB,2UZD,2UZE,2UZL,2UZN,2UZO,2V0D,2V22,2VTA,2VTH,2VTI,2VTJ,2VTL,2VTM,2VTN,2VTO,2VTP,2VTQ,2VTR,2VTS,2VTT,2VU3,2VV9,2W05,2W06,2W17,2W1H,2WEV,2WFY,2WHB,2WIH,2WIP,2WMA,2WMB,2WPA,2WXV,2X1N,2XMY,2XNB,3BHT,3BHU,3BHV,3DDP,3DDQ,3DOG,3EID,3EJ1,3EOC,3EZR,3EZV,3F5X,3FZ1,3IG7,3IGG,3LE6,3LFN,3LFQ,3LFS,3MY5,3NS9,3PJ8,3PXF,3PXQ,3PXR,3PXY,3PXZ,3PY0,3PY1,3QHR,3QHW,3QL8,3QQF,3QQG,3QQH,3QQJ,3QQK,3QQL,3QRT,3QRU,3QTQ,3QTR,3QTS,3QTU,3QTW,3QTX,3QTZ,3QU0,3QWJ,3QWK,3QX2,3QX4,3QXO,3QXP,3QZF,3QZG,3QZH,3QZI,3R1Q,3R1S,3R1Y,3R28,3R6X,3R71,3R73,3R7E,3R7I,3R7U,3R7V,3R7Y,3R83,3R8L,3R8M,3R8P,3R8U,3R8V,3R8Z,3R9D,3R9H,3R9N,3R9O,3RAH,3RAI,3RAK,3RAL,3RJC,3RK5,3RK7,3RK9,3RKB,3RM6,3RM7,3RMF,3RNI,3ROY,3RPO,3RPR,3RPV,3RPY,3RZB,3S00,3S0O,3S1H,3S2P,3SQQ,3SW4,3SW7,3TI1,3TIY,3TIZ,3TNW,3ULI,3UNJ,3UNK,3WBL,4ACM,4BCK,4BCM,4BCN,4BCO,4BCP,4BCQ,4BGH,4BZD,4CFM,4CFN,4CFU,4CFV,4CFW,4CFX,4D1X,4D1Z,4EK3,4EK4,4EK5,4EK6,4EK8,4EOQ,4EOR,4EOS,4ERW,4EZ3,4EZ7,4FKG,4FKI,4FKJ,4FKL,4FKO,4FKP,4FKQ,4FKR,4FKS,4FKT,4FKU,4FKV,4FKW,4FX3,4GCJ,4I3Z,4II5,4KD1,4LYN,4NJ3,4RJ3,5A14,5AND,5ANE,5ANG,5ANI,5ANJ,5ANK,5ANO,5CYI,5D1J,5FP5,5FP6,5IEV,5IEX,5IEY,5IF1,5JQ5,5JQ8,5K4J,5L2W,5LMK,5MHQ,5NEV,5OO0,5OSJ,5UQ1,5UQ2,5UQ3,6ATH,6GUB,6GUC,6GUE,6GUF,6GUH,6GUK,6GVA,6INL,6JGM,6OQI,6P3W,6Q3B,6Q3C,6Q3F,6Q48,6Q49,6Q4A,6Q4B,6Q4C,6Q4D,6Q4E,6Q4F,6Q4H,6Q4J,6Q4K,6RIJ,6SG4,7ACK,7B5L,7B5R,7B7S,7E34,7KJS,7M2F,7NVQ

> <UniProt (SwissProt) Recommended Name of Target Chain>
Cyclin-dependent kinase 2

> <UniProt (SwissProt) Entry Name of Target Chain>
CDK2_HUMAN

> <UniProt (SwissProt) Primary ID of Target Chain>
P24941

> <UniProt (SwissProt) Secondary ID(s) of Target Chain>
A8K7C6,O75100

> <UniProt (SwissProt) Alternative ID(s) of Target Chain>


> <UniProt (TrEMBL) Submitted Name of Target Chain>


> <UniProt (TrEMBL) Entry Name of Target Chain>


> <UniProt (TrEMBL) Primary ID of Target Chain>
A0A024RB77

> <UniProt (TrEMBL) Secondary ID(s) of Target Chain>


> <UniProt (TrEMBL) Alternative ID(s) of Target Chain>


$$$$
BindingDB_50444918_mol_1

Vconf v2.0 Academic SN VC001-00000579
 62 65  0  0  0  0  0  0  0  0999 V2000
   17.3010  -24.5730    0.8520 C   0  0  0  0  0  0  0  0  0  0  0
   17.4630  -25.9000    0.4040 C   0  0  0  0  0  0  0  0  0  0  0
   18.5600  -26.6690    0.8220 C   0  0  0  0  0  0  0  0  0  0  0
   18.2600  -24.0330    1.7390 C   0  0  0  0  0  0  0  0  0  0  0
   19.3810  -24.7850    2.1630 C   0  0  0  0  0  0  0  0  0  0  0
   19.5110  -26.1180    1.6940 C   0  0  0  0  0  0  0  0  0  0  0
   20.5600  -26.8780    2.0910 N   0  0  0  0  0  0  0  0  0  0  0
   21.5290  -26.4410    2.9350 C   0  0  0  0  0  0  0  0  0  0  0
   21.4440  -25.1250    3.4280 C   0  0  0  0  0  0  0  0  0  0  0
   20.3760  -24.2870    3.0440 C   0  0  0  0  0  0  0  0  0  0  0
   16.1960  -23.8570    0.4260 C   0  0  0  0  0  0  0  0  0  0  0
   20.3560  -23.0050    3.5560 C   0  0  0  0  0  0  0  0  0  0  0
   20.1980  -22.0320    2.8350 O   0  0  0  0  0  0  0  0  0  0  0
   20.5710  -22.7880    4.8410 O   0  0  0  0  0  0  0  0  0  0  0
   22.5790  -27.3120    3.2870 C   0  0  0  0  0  0  0  0  0  0  0
   22.5590  -28.5880    2.8390 N   0  0  0  0  0  0  0  0  0  0  0
   23.5230  -26.9290    4.0160 O   0  0  0  0  0  0  0  0  0  0  0
   23.5660  -29.5520    3.1260 C   0  0  2  0  0  0  0  0  0  0  0
   24.8760  -29.2130    2.3900 C   0  0  0  0  0  0  0  0  0  0  0
   23.0830  -30.9520    2.6850 C   0  0  0  0  0  0  0  0  0  0  0
   21.8750  -31.3930    3.4130 C   0  0  0  0  0  0  0  0  0  0  0
   21.9350  -31.6470    4.7980 C   0  0  0  0  0  0  0  0  0  0  0
   20.7880  -32.0640    5.4960 C   0  0  0  0  0  0  0  0  0  0  0
   19.5710  -32.2300    4.8140 C   0  0  0  0  0  0  0  0  0  0  0
   19.5030  -31.9810    3.4320 C   0  0  0  0  0  0  0  0  0  0  0
   20.6510  -31.5650    2.7350 C   0  0  0  0  0  0  0  0  0  0  0
   16.1860  -22.5260    0.2450 C   0  0  0  0  0  0  0  0  0  0  0
   18.4720  -32.6300    5.4890 O   0  0  0  0  0  0  0  0  0  0  0
   15.0870  -21.8100   -0.2010 C   0  0  0  0  0  0  0  0  0  0  0
   15.2990  -20.6250   -0.9380 C   0  0  0  0  0  0  0  0  0  0  0
   14.2140  -19.8600   -1.4000 C   0  0  0  0  0  0  0  0  0  0  0
   12.8950  -20.2690   -1.1270 C   0  0  0  0  0  0  0  0  0  0  0
   12.6710  -21.4450   -0.3880 C   0  0  0  0  0  0  0  0  0  0  0
   13.7590  -22.2060    0.0740 C   0  0  0  0  0  0  0  0  0  0  0
   11.5880  -19.3490   -1.6800 Cl  0  0  0  0  0  0  0  0  0  0  0
   24.6460  -29.1480    0.9830 O   0  0  0  0  0  0  0  0  0  0  0
   25.7670  -28.8270    0.1660 C   0  0  0  0  0  0  0  0  0  0  0
   16.7800  -26.3160   -0.2310 H   0  0  0  0  0  0  0  0  0  0  0
   18.6630  -27.6290    0.4900 H   0  0  0  0  0  0  0  0  0  0  0
   18.1300  -23.0820    2.0840 H   0  0  0  0  0  0  0  0  0  0  0
   22.1640  -24.7730    4.0630 H   0  0  0  0  0  0  0  0  0  0  0
   15.3730  -24.3710    0.2140 H   0  0  0  0  0  0  0  0  0  0  0
   20.5550  -21.8400    5.0860 H   0  0  0  0  0  0  0  0  0  0  0
   21.8000  -28.8630    2.3010 H   0  0  0  0  0  0  0  0  0  0  0
   23.7670  -29.5660    4.2000 H   0  0  0  0  0  0  0  0  0  0  0
   25.2560  -28.2540    2.7430 H   0  0  0  0  0  0  0  0  0  0  0
   25.6170  -29.9840    2.6030 H   0  0  0  0  0  0  0  0  0  0  0
   22.8890  -30.9260    1.6110 H   0  0  0  0  0  0  0  0  0  0  0
   23.8800  -31.6760    2.8630 H   0  0  0  0  0  0  0  0  0  0  0
   22.8150  -31.5300    5.3010 H   0  0  0  0  0  0  0  0  0  0  0
   20.8410  -32.2460    6.4990 H   0  0  0  0  0  0  0  0  0  0  0
   18.6210  -32.1010    2.9330 H   0  0  0  0  0  0  0  0  0  0  0
   20.5910  -31.3840    1.7320 H   0  0  0  0  0  0  0  0  0  0  0
   17.0220  -22.0180    0.4130 H   0  0  0  0  0  0  0  0  0  0  0
   17.6670  -32.7250    4.9390 H   0  0  0  0  0  0  0  0  0  0  0
   16.2490  -20.3130   -1.1470 H   0  0  0  0  0  0  0  0  0  0  0
   14.3930  -19.0080   -1.9340 H   0  0  0  0  0  0  0  0  0  0  0
   11.7200  -21.7520   -0.1790 H   0  0  0  0  0  0  0  0  0  0  0
   13.5730  -23.0490    0.6170 H   0  0  0  0  0  0  0  0  0  0  0
   25.4570  -28.8220   -0.8790 H   0  0  0  0  0  0  0  0  0  0  0
   26.1500  -27.8410    0.4320 H   0  0  0  0  0  0  0  0  0  0  0
   26.5510  -29.5730    0.3030 H   0  0  0  0  0  0  0  0  0  0  0
  1  2  2  0  0  0  0
  1  4  1  0  0  0  0
  1 11  1  0  0  0  0
  2  3  1  0  0  0  0
  2 38  1  0  0  0  0
  3  6  2  0  0  0  0
  3 39  1  0  0  0  0
  4  5  2  0  0  0  0
  4 40  1  0  0  0  0
  5  6  1  0  0  0  0
  5 10  1  0  0  0  0
  6  7  1  0  0  0  0
  7  8  2  0  0  0  0
  8  9  1  0  0  0  0
  8 15  1  0  0  0  0
  9 10  2  0  0  0  0
  9 41  1  0  0  0  0
 10 12  1  0  0  0  0
 11 27  2  0  0  0  0
 11 42  1  0  0  0  0
 12 13  2  0  0  0  0
 12 14  1  0  0  0  0
 14 43  1  0  0  0  0
 15 16  1  0  0  0  0
 15 17  2  0  0  0  0
 18 16  1  1  0  0  0
 16 44  1  0  0  0  0
 18 19  1  0  0  0  0
 18 20  1  0  0  0  0
 18 45  1  0  0  0  0
 19 36  1  0  0  0  0
 19 46  1  0  0  0  0
 19 47  1  0  0  0  0
 20 21  1  0  0  0  0
 20 48  1  0  0  0  0
 20 49  1  0  0  0  0
 21 22  2  0  0  0  0
 21 26  1  0  0  0  0
 22 23  1  0  0  0  0
 22 50  1  0  0  0  0
 23 24  2  0  0  0  0
 23 51  1  0  0  0  0
 24 25  1  0  0  0  0
 24 28  1  0  0  0  0
 25 26  2  0  0  0  0
 25 52  1  0  0  0  0
 26 53  1  0  0  0  0
 27 29  1  0  0  0  0
 27 54  1  0  0  0  0
 28 55  1  0  0  0  0
 29 30  2  0  0  0  0
 29 34  1  0  0  0  0
 30 31  1  0  0  0  0
 30 56  1  0  0  0  0
 31 32  2  0  0  0  0
 31 57  1  0  0  0  0
 32 33  1  0  0  0  0
 32 35  1  0  0  0  0
 33 34  2  0  0  0  0
 33 58  1  0  0  0  0
 34 59  1  0  0  0  0
 36 37  1  0  0  0  0
 37 60  1  0  0  0  0
 37 61  1  0  0  0  0
 37 62  1  0  0  0  0
M  END
> <From>
www.bindingDB.org

> <BindingDB Reactant_set_id>
50077213

> <Ligand InChI>
InChI=1S/C29H25ClN2O5/c1-37-17-22(14-19-6-11-23(33)12-7-19)31-28(34)27-16-25(29(35)36)24-15-20(8-13-26(24)32-27)3-2-18-4-9-21(30)10-5-18/h2-13,15-16,22,33H,14,17H2,1H3,(H,31,34)(H,35,36)/b3-2+/t22-/m0/s1

> <Ligand InChI Key>
USOUMMYIFYDJEI-ZZTDINLMSA-N

> <BindingDB MonomerID>
50444918

> <BindingDB Ligand Name>
CHEMBL3099753

> <Target Name Assigned by Curator or DataSource>
Cyclin-dependent kinase 2

> <Target Source Organism According to Curator or DataSource>
Homo sapiens

> <Ki (nM)>
<100

> <IC50 (nM)>


> <Kd (nM)>


> <EC50 (nM)>


> <kon (M-1-s-1)>


> <koff (s-1)>


> <pH>


> <Temp C>


> <Curation/DataSource>
ChEMBL

> <Article DOI>
10.1016/j.bmcl.2013.11.041

> <PMID>
24332088

> <PubChem AID>


> <Patent Number>


> <Authors>
Deng, Y; Shipps, GW; Zhao, L; Siddiqui, MA; Popovici-Muller, J; Curran, PJ; Duca, JS; Hruza, AW; Fischmann, TO; Madison, VS; Zhang, R; McNemar, CW; Mayhood, TW; Syto, R; Annis, A; Kirschmeier, P; Lees, EM; Parry, DA; Windsor, WT

> <Institution>
Merck Research Laboratories

> <Link to Ligand in BindingDB>
http://www.bindingdb.org/bind/chemsearch/marvin/MolStructure.jsp?monomerid=50444918

> <Link to Ligand-Target Pair in BindingDB>
http://www.bindingdb.org/jsp/dbsearch/PrimarySearch_ki.jsp?energyterm=kJ/mole&tag=pol&polymerid=796&target=Cyclin-dependent+kinase+2&column=ki&startPg=0&Increment=50&submit=Search

> <Link to Ligand-Target Pair in BindingDB>
http://www.bindingdb.org/jsp/dbsearch/PrimarySearch_ki.jsp?energyterm=kJ/mole&tag=r21&monomerid=50444918&enzyme=Cyclin-dependent+kinase+2&column=ki&startPg=0&Increment=50&submit=Search

> <Ligand HET ID in PDB>


> <PDB ID(s) for Ligand-Target Complex>


> <PubChem CID>
16050532

> <PubChem SID>
194942814

> <ChEBI ID of Ligand>


> <ChEMBL ID of Ligand>
CHEMBL3099753

> <DrugBank ID of Ligand>


> <IUPHAR_GRAC ID of Ligand>


> <KEGG ID of Ligand>


> <ZINC ID of Ligand>


> <Number of Protein Chains in Target (bigger than 1 implies a multichain complex)>
1

> <BindingDB Target Chain Sequence>
MENFQKVEKIGEGTYGVVYKARNKLTGEVVALKKIRLDTETEGVPSTAIREISLLKELNHPNIVKLLDVIHTENKLYLVFEFLHQDLKKFMDASALTGIPLPLIKSYLFQLLQGLAFCHSHRVLHRDLKPQNLLINTEGAIKLADFGLARAFGVPVRTYTHEVVTLWYRAPEILLGCKYYSTAVDIWSLGCIFAEMVTRRALFPGDSEIDQLFRIFRTLGTPDEVVWPGVTSMPDYKPSFPKWARQDFSKVVPPLDEDGRSLLSQMLHYDPNKRISAKAALAHPFFQDVTKPVPHLRL

> <PDB ID(s) of Target Chain>
1CKP,1DI8,1DM2,1E1V,1E1X,1E9H,1F5Q,1FIN,1FQ1,1FVT,1FVV,1G5S,1GIH,1GY3,1GZ8,1H00,1H01,1H07,1H08,1H0V,1H0W,1H1P,1H1Q,1H1R,1H1S,1H24,1H25,1H26,1H27,1H28,1HCK,1HCL,1JST,1JSU,1JSV,1JVP,1KE5,1KE6,1KE7,1KE8,1KE9,1OGU,1OI9,1OIQ,1OIR,1OIU,1OIY,1OKV,1OKW,1OL1,1OL2,1P2A,1P5E,1PF8,1PKD,1PW2,1PXI,1PXJ,1PXK,1PXL,1PXM,1PXN,1PXO,1PXP,1PYE,1QMZ,1R78,1URC,1URW,1V1K,1VYW,1VYZ,1W0X,1W8C,1W98,1WCC,1Y8Y,1Y91,1YKR,2A0C,2A4L,2B52,2B53,2B54,2B55,2BHE,2BHH,2BKZ,2BPM,2BTR,2BTS,2C4G,2C5N,2C5O,2C5V,2C5X,2C5Y,2C68,2C69,2C6I,2C6K,2C6L,2C6M,2C6O,2C6T,2CCH,2CCI,2CJM,2CLX,2DUV,2EXM,2FVD,2G9X,2I40,2J9M,2JGZ,2R3F,2R3G,2R3H,2R3I,2R3J,2R3K,2R3L,2R3M,2R3N,2R3O,2R3P,2R3Q,2R3R,2R64,2UUE,2UZB,2UZD,2UZE,2UZL,2UZN,2UZO,2V0D,2V22,2VTA,2VTH,2VTI,2VTJ,2VTL,2VTM,2VTN,2VTO,2VTP,2VTQ,2VTR,2VTS,2VTT,2VU3,2VV9,2W05,2W06,2W17,2W1H,2WEV,2WFY,2WHB,2WIH,2WIP,2WMA,2WMB,2WPA,2WXV,2X1N,2XMY,2XNB,3BHT,3BHU,3BHV,3DDP,3DDQ,3DOG,3EID,3EJ1,3EOC,3EZR,3EZV,3F5X,3FZ1,3IG7,3IGG,3LE6,3LFN,3LFQ,3LFS,3MY5,3NS9,3PJ8,3PXF,3PXQ,3PXR,3PXY,3PXZ,3PY0,3PY1,3QHR,3QHW,3QL8,3QQF,3QQG,3QQH,3QQJ,3QQK,3QQL,3QRT,3QRU,3QTQ,3QTR,3QTS,3QTU,3QTW,3QTX,3QTZ,3QU0,3QWJ,3QWK,3QX2,3QX4,3QXO,3QXP,3QZF,3QZG,3QZH,3QZI,3R1Q,3R1S,3R1Y,3R28,3R6X,3R71,3R73,3R7E,3R7I,3R7U,3R7V,3R7Y,3R83,3R8L,3R8M,3R8P,3R8U,3R8V,3R8Z,3R9D,3R9H,3R9N,3R9O,3RAH,3RAI,3RAK,3RAL,3RJC,3RK5,3RK7,3RK9,3RKB,3RM6,3RM7,3RMF,3RNI,3ROY,3RPO,3RPR,3RPV,3RPY,3RZB,3S00,3S0O,3S1H,3S2P,3SQQ,3SW4,3SW7,3TI1,3TIY,3TIZ,3TNW,3ULI,3UNJ,3UNK,3WBL,4ACM,4BCK,4BCM,4BCN,4BCO,4BCP,4BCQ,4BGH,4BZD,4CFM,4CFN,4CFU,4CFV,4CFW,4CFX,4D1X,4D1Z,4EK3,4EK4,4EK5,4EK6,4EK8,4EOQ,4EOR,4EOS,4ERW,4EZ3,4EZ7,4FKG,4FKI,4FKJ,4FKL,4FKO,4FKP,4FKQ,4FKR,4FKS,4FKT,4FKU,4FKV,4FKW,4FX3,4GCJ,4I3Z,4II5,4KD1,4LYN,4NJ3,4RJ3,5A14,5AND,5ANE,5ANG,5ANI,5ANJ,5ANK,5ANO,5CYI,5D1J,5FP5,5FP6,5IEV,5IEX,5IEY,5IF1,5JQ5,5JQ8,5K4J,5L2W,5LMK,5MHQ,5NEV,5OO0,5OSJ,5UQ1,5UQ2,5UQ3,6ATH,6GUB,6GUC,6GUE,6GUF,6GUH,6GUK,6GVA,6INL,6JGM,6OQI,6P3W,6Q3B,6Q3C,6Q3F,6Q48,6Q49,6Q4A,6Q4B,6Q4C,6Q4D,6Q4E,6Q4F,6Q4H,6Q4J,6Q4K,6RIJ,6SG4,7ACK,7B5L,7B5R,7B7S,7E34,7KJS,7M2F,7NVQ

> <UniProt (SwissProt) Recommended Name of Target Chain>
Cyclin-dependent kinase 2

> <UniProt (SwissProt) Entry Name of Target Chain>
CDK2_HUMAN

> <UniProt (SwissProt) Primary ID of Target Chain>
P24941

> <UniProt (SwissProt) Secondary ID(s) of Target Chain>
A8K7C6,O75100

> <UniProt (SwissProt) Alternative ID(s) of Target Chain>


> <UniProt (TrEMBL) Submitted Name of Target Chain>


> <UniProt (TrEMBL) Entry Name of Target Chain>


> <UniProt (TrEMBL) Primary ID of Target Chain>
A0A024RB77

> <UniProt (TrEMBL) Secondary ID(s) of Target Chain>


> <UniProt (TrEMBL) Alternative ID(s) of Target Chain>


$$$$
ttt_mol_1

Vconf v2.1
 48 51  0  0  0  0  0  0  0  0999 V2000
   10.7140   -3.8640    0.3370 C   0  0  0  0  0  0  0  0  0  0  0
   10.9800   -5.1280   -0.2120 C   0  0  0  0  0  0  0  0  0  0  0
   11.9380   -5.9810    0.3810 C   0  0  0  0  0  0  0  0  0  0  0
   11.3870   -3.4280    1.4880 C   0  0  0  0  0  0  0  0  0  0  0
   12.3420   -4.2650    2.1070 C   0  0  0  0  0  0  0  0  0  0  0
   12.6030   -5.5380    1.5470 C   0  0  0  0  0  0  0  0  0  0  0
   13.5290   -6.3480    2.1500 O   0  0  0  0  0  0  0  0  0  0  0
   14.1940   -5.9640    3.2520 C   0  0  0  0  0  0  0  0  0  0  0
   13.9590   -4.7580    3.7970 C   0  0  0  0  0  0  0  0  0  0  0
   13.0570   -3.9170    3.2470 C   0  0  0  0  0  0  0  0  0  0  0
   12.9000   -2.8360    3.7960 O   0  0  0  0  0  0  0  0  0  0  0
   15.0980   -6.8510    3.7980 C   0  0  0  0  0  0  0  0  0  0  0
   16.4060   -6.4460    4.1460 C   0  0  0  0  0  0  0  0  0  0  0
   17.3170   -7.3690    4.6880 C   0  0  0  0  0  0  0  0  0  0  0
   16.9310   -8.7050    4.8850 C   0  0  0  0  0  0  0  0  0  0  0
   15.6340   -9.1190    4.5400 C   0  0  0  0  0  0  0  0  0  0  0
   14.7230   -8.1960    3.9990 C   0  0  0  0  0  0  0  0  0  0  0
   11.0840   -2.1980    1.9640 O   0  0  0  0  0  0  0  0  0  0  0
   10.2770   -5.4850   -1.3120 O   0  0  0  0  0  0  0  0  0  0  0
   12.2450   -7.3140   -0.2080 C   0  0  1  0  0  0  0  0  0  0  0
   13.7290   -7.5230   -0.5670 C   0  0  0  0  0  0  0  0  0  0  0
   14.1120   -8.8360    0.1200 C   0  0  0  0  0  0  0  0  0  0  0
   12.8430   -9.5550    0.2910 N   0  0  0  0  0  0  0  0  0  0  0
   11.8930   -8.5090    0.7060 C   0  0  2  0  0  0  0  0  0  0  0
   12.9770  -10.6330    1.2850 C   0  0  0  0  0  0  0  0  0  0  0
   10.4370   -8.9700    0.5150 C   0  0  0  0  0  0  0  0  0  0  0
    9.5400   -7.9130    0.8290 O   0  0  0  0  0  0  0  0  0  0  0
   10.0210   -3.2570   -0.1030 H   0  0  0  0  0  0  0  0  0  0  0
   14.4420   -4.4760    4.6170 H   0  0  0  0  0  0  0  0  0  0  0
   16.7010   -5.4800    4.0010 H   0  0  0  0  0  0  0  0  0  0  0
   18.2600   -7.0680    4.9370 H   0  0  0  0  0  0  0  0  0  0  0
   17.5930   -9.3750    5.2780 H   0  0  0  0  0  0  0  0  0  0  0
   15.3540  -10.0900    4.6810 H   0  0  0  0  0  0  0  0  0  0  0
   13.7820   -8.5070    3.7530 H   0  0  0  0  0  0  0  0  0  0  0
   11.5760   -1.9310    2.7690 H   0  0  0  0  0  0  0  0  0  0  0
   10.4090   -6.4050   -1.6150 H   0  0  0  0  0  0  0  0  0  0  0
   11.6940   -7.4520   -1.1380 H   0  0  0  0  0  0  0  0  0  0  0
   14.3750   -6.7140   -0.2220 H   0  0  0  0  0  0  0  0  0  0  0
   13.8320   -7.6320   -1.6480 H   0  0  0  0  0  0  0  0  0  0  0
   14.8080   -9.4090   -0.4940 H   0  0  0  0  0  0  0  0  0  0  0
   14.5660   -8.6160    1.0880 H   0  0  0  0  0  0  0  0  0  0  0
   12.0560   -8.2590    1.7560 H   0  0  0  0  0  0  0  0  0  0  0
   12.0340  -11.1700    1.3790 H   0  0  0  0  0  0  0  0  0  0  0
   13.7460  -11.3340    0.9590 H   0  0  0  0  0  0  0  0  0  0  0
   13.2560  -10.2270    2.2580 H   0  0  0  0  0  0  0  0  0  0  0
   10.2830   -9.2790   -0.5200 H   0  0  0  0  0  0  0  0  0  0  0
   10.2310   -9.8120    1.1740 H   0  0  0  0  0  0  0  0  0  0  0
    8.5920   -8.1440    0.7340 H   0  0  0  0  0  0  0  0  0  0  0
  1  2  2  0  0  0  0
  1  4  1  0  0  0  0
  1 28  1  0  0  0  0
  2  3  1  0  0  0  0
  2 19  1  0  0  0  0
  3  6  2  0  0  0  0
  3 20  1  0  0  0  0
  4  5  2  0  0  0  0
  4 18  1  0  0  0  0
  5  6  1  0  0  0  0
  5 10  1  0  0  0  0
  6  7  1  0  0  0  0
  7  8  1  0  0  0  0
  8  9  2  0  0  0  0
  8 12  1  0  0  0  0
  9 10  1  0  0  0  0
  9 29  1  0  0  0  0
 10 11  2  0  0  0  0
 12 13  2  0  0  0  0
 12 17  1  0  0  0  0
 13 14  1  0  0  0  0
 13 30  1  0  0  0  0
 14 15  2  0  0  0  0
 14 31  1  0  0  0  0
 15 16  1  0  0  0  0
 15 32  1  0  0  0  0
 16 17  2  0  0  0  0
 16 33  1  0  0  0  0
 17 34  1  0  0  0  0
 18 35  1  0  0  0  0
 19 36  1  0  0  0  0
 20 21  1  0  0  0  0
 20 24  1  0  0  0  0
 20 37  1  0  0  0  0
 21 22  1  0  0  0  0
 21 38  1  0  0  0  0
 21 39  1  0  0  0  0
 22 23  1  0  0  0  0
 22 40  1  0  0  0  0
 22 41  1  0  0  0  0
 23 24  1  0  0  0  0
 23 25  1  0  0  0  0
 24 26  1  0  0  0  0
 24 42  1  0  0  0  0
 25 43  1  0  0  0  0
 25 44  1  0  0  0  0
 25 45  1  0  0  0  0
 26 27  1  0  0  0  0
 26 46  1  0  0  0  0
 26 47  1  0  0  0  0
 27 48  1  0  0  0  0
M  END
> <From>
www.bindingDB.org

> <BindingDB Reactant_set_id>
50224206

> <Ligand InChI>
InChI=1S/C21H21NO5/c1-22-8-7-13(14(22)11-23)19-15(24)9-16(25)20-17(26)10-18(27-21(19)20)12-5-3-2-4-6-12/h2-6,9-10,13-14,23-25H,7-8,11H2,1H3

> <Ligand InChI Key>
HRTOUPQLDWWXIX-UHFFFAOYSA-N

> <BindingDB MonomerID>
50027825

> <BindingDB Ligand Name>
CHEMBL2312181

> <Target Name Assigned by Curator or DataSource>
Cyclin-dependent kinase 2

> <Target Source Organism According to Curator or DataSource>
Homo sapiens

> <Ki (nM)>
<100

> <IC50 (nM)>


> <Kd (nM)>


> <EC50 (nM)>


> <kon (M-1-s-1)>


> <koff (s-1)>


> <pH>


> <Temp C>


> <Curation/DataSource>
ChEMBL

> <Article DOI>
10.1021/jm301495v

> <PMID>
23252711

> <PubChem AID>


> <Patent Number>


> <Authors>
Hole, AJ; Baumli, S; Shao, H; Shi, S; Huang, S; Pepper, C; Fischer, PM; Wang, S; Endicott, JA; Noble, ME

> <Institution>
University of Oxford

> <Link to Ligand in BindingDB>
http://www.bindingdb.org/bind/chemsearch/marvin/MolStructure.jsp?monomerid=50027825

> <Link to Ligand-Target Pair in BindingDB>
http://www.bindingdb.org/jsp/dbsearch/PrimarySearch_ki.jsp?energyterm=kJ/mole&tag=pol&polymerid=796&target=Cyclin-dependent+kinase+2&column=ki&startPg=0&Increment=50&submit=Search

> <Link to Ligand-Target Pair in BindingDB>
http://www.bindingdb.org/jsp/dbsearch/PrimarySearch_ki.jsp?energyterm=kJ/mole&tag=r21&monomerid=50027825&enzyme=Cyclin-dependent+kinase+2&column=ki&startPg=0&Increment=50&submit=Search

> <Ligand HET ID in PDB>


> <PDB ID(s) for Ligand-Target Complex>


> <PubChem CID>
10406644

> <PubChem SID>
103937265

> <ChEBI ID of Ligand>
29067

> <ChEMBL ID of Ligand>
CHEMBL2312181

> <DrugBank ID of Ligand>


> <IUPHAR_GRAC ID of Ligand>


> <KEGG ID of Ligand>


> <ZINC ID of Ligand>
ZINC13347210

> <Number of Protein Chains in Target (bigger than 1 implies a multichain complex)>
1

> <BindingDB Target Chain Sequence>
MENFQKVEKIGEGTYGVVYKARNKLTGEVVALKKIRLDTETEGVPSTAIREISLLKELNHPNIVKLLDVIHTENKLYLVFEFLHQDLKKFMDASALTGIPLPLIKSYLFQLLQGLAFCHSHRVLHRDLKPQNLLINTEGAIKLADFGLARAFGVPVRTYTHEVVTLWYRAPEILLGCKYYSTAVDIWSLGCIFAEMVTRRALFPGDSEIDQLFRIFRTLGTPDEVVWPGVTSMPDYKPSFPKWARQDFSKVVPPLDEDGRSLLSQMLHYDPNKRISAKAALAHPFFQDVTKPVPHLRL

> <PDB ID(s) of Target Chain>
1CKP,1DI8,1DM2,1E1V,1E1X,1E9H,1F5Q,1FIN,1FQ1,1FVT,1FVV,1G5S,1GIH,1GY3,1GZ8,1H00,1H01,1H07,1H08,1H0V,1H0W,1H1P,1H1Q,1H1R,1H1S,1H24,1H25,1H26,1H27,1H28,1HCK,1HCL,1JST,1JSU,1JSV,1JVP,1KE5,1KE6,1KE7,1KE8,1KE9,1OGU,1OI9,1OIQ,1OIR,1OIU,1OIY,1OKV,1OKW,1OL1,1OL2,1P2A,1P5E,1PF8,1PKD,1PW2,1PXI,1PXJ,1PXK,1PXL,1PXM,1PXN,1PXO,1PXP,1PYE,1QMZ,1R78,1URC,1URW,1V1K,1VYW,1VYZ,1W0X,1W8C,1W98,1WCC,1Y8Y,1Y91,1YKR,2A0C,2A4L,2B52,2B53,2B54,2B55,2BHE,2BHH,2BKZ,2BPM,2BTR,2BTS,2C4G,2C5N,2C5O,2C5V,2C5X,2C5Y,2C68,2C69,2C6I,2C6K,2C6L,2C6M,2C6O,2C6T,2CCH,2CCI,2CJM,2CLX,2DUV,2EXM,2FVD,2G9X,2I40,2J9M,2JGZ,2R3F,2R3G,2R3H,2R3I,2R3J,2R3K,2R3L,2R3M,2R3N,2R3O,2R3P,2R3Q,2R3R,2R64,2UUE,2UZB,2UZD,2UZE,2UZL,2UZN,2UZO,2V0D,2V22,2VTA,2VTH,2VTI,2VTJ,2VTL,2VTM,2VTN,2VTO,2VTP,2VTQ,2VTR,2VTS,2VTT,2VU3,2VV9,2W05,2W06,2W17,2W1H,2WEV,2WFY,2WHB,2WIH,2WIP,2WMA,2WMB,2WPA,2WXV,2X1N,2XMY,2XNB,3BHT,3BHU,3BHV,3DDP,3DDQ,3DOG,3EID,3EJ1,3EOC,3EZR,3EZV,3F5X,3FZ1,3IG7,3IGG,3LE6,3LFN,3LFQ,3LFS,3MY5,3NS9,3PJ8,3PXF,3PXQ,3PXR,3PXY,3PXZ,3PY0,3PY1,3QHR,3QHW,3QL8,3QQF,3QQG,3QQH,3QQJ,3QQK,3QQL,3QRT,3QRU,3QTQ,3QTR,3QTS,3QTU,3QTW,3QTX,3QTZ,3QU0,3QWJ,3QWK,3QX2,3QX4,3QXO,3QXP,3QZF,3QZG,3QZH,3QZI,3R1Q,3R1S,3R1Y,3R28,3R6X,3R71,3R73,3R7E,3R7I,3R7U,3R7V,3R7Y,3R83,3R8L,3R8M,3R8P,3R8U,3R8V,3R8Z,3R9D,3R9H,3R9N,3R9O,3RAH,3RAI,3RAK,3RAL,3RJC,3RK5,3RK7,3RK9,3RKB,3RM6,3RM7,3RMF,3RNI,3ROY,3RPO,3RPR,3RPV,3RPY,3RZB,3S00,3S0O,3S1H,3S2P,3SQQ,3SW4,3SW7,3TI1,3TIY,3TIZ,3TNW,3ULI,3UNJ,3UNK,3WBL,4ACM,4BCK,4BCM,4BCN,4BCO,4BCP,4BCQ,4BGH,4BZD,4CFM,4CFN,4CFU,4CFV,4CFW,4CFX,4D1X,4D1Z,4EK3,4EK4,4EK5,4EK6,4EK8,4EOQ,4EOR,4EOS,4ERW,4EZ3,4EZ7,4FKG,4FKI,4FKJ,4FKL,4FKO,4FKP,4FKQ,4FKR,4FKS,4FKT,4FKU,4FKV,4FKW,4FX3,4GCJ,4I3Z,4II5,4KD1,4LYN,4NJ3,4RJ3,5A14,5AND,5ANE,5ANG,5ANI,5ANJ,5ANK,5ANO,5CYI,5D1J,5FP5,5FP6,5IEV,5IEX,5IEY,5IF1,5JQ5,5JQ8,5K4J,5L2W,5LMK,5MHQ,5NEV,5OO0,5OSJ,5UQ1,5UQ2,5UQ3,6ATH,6GUB,6GUC,6GUE,6GUF,6GUH,6GUK,6GVA,6INL,6JGM,6OQI,6P3W,6Q3B,6Q3C,6Q3F,6Q48,6Q49,6Q4A,6Q4B,6Q4C,6Q4D,6Q4E,6Q4F,6Q4H,6Q4J,6Q4K,6RIJ,6SG4,7ACK,7B5L,7B5R,7B7S,7E34,7KJS,7M2F,7NVQ

> <UniProt (SwissProt) Recommended Name of Target Chain>
Cyclin-dependent kinase 2

> <UniProt (SwissProt) Entry Name of Target Chain>
CDK2_HUMAN

> <UniProt (SwissProt) Primary ID of Target Chain>
P24941

> <UniProt (SwissProt) Secondary ID(s) of Target Chain>
A8K7C6,O75100

> <UniProt (SwissProt) Alternative ID(s) of Target Chain>


> <UniProt (TrEMBL) Submitted Name of Target Chain>


> <UniProt (TrEMBL) Entry Name of Target Chain>


> <UniProt (TrEMBL) Primary ID of Target Chain>
A0A024RB77

> <UniProt (TrEMBL) Secondary ID(s) of Target Chain>


> <UniProt (TrEMBL) Alternative ID(s) of Target Chain>


$$$$
BindingDB_50444919_mol_1

Vconf v2.0 Academic SN VC001-00000579
 61 64  0  0  0  0  0  0  0  0999 V2000
    4.3640  -23.8170    0.5470 C   0  0  0  0  0  0  0  0  0  0  0
    4.2150  -24.9990   -0.2140 C   0  0  0  0  0  0  0  0  0  0  0
    4.6200  -26.2430    0.2910 C   0  0  0  0  0  0  0  0  0  0  0
    4.9400  -23.9260    1.8370 C   0  0  0  0  0  0  0  0  0  0  0
    5.3660  -25.1670    2.3640 C   0  0  0  0  0  0  0  0  0  0  0
    5.1890  -26.3290    1.5700 C   0  0  0  0  0  0  0  0  0  0  0
    5.5650  -27.5400    2.0440 N   0  0  0  0  0  0  0  0  0  0  0
    6.1180  -27.7300    3.2690 C   0  0  0  0  0  0  0  0  0  0  0
    6.3170  -26.6070    4.0950 C   0  0  0  0  0  0  0  0  0  0  0
    5.9510  -25.3200    3.6490 C   0  0  0  0  0  0  0  0  0  0  0
    3.9450  -22.5550    0.0300 C   0  0  0  0  0  0  0  0  0  0  0
    6.1890  -24.2590    4.4990 C   0  0  0  0  0  0  0  0  0  0  0
    6.7670  -23.2540    4.1170 O   0  0  0  0  0  0  0  0  0  0  0
    5.8620  -24.3300    5.7770 O   0  0  0  0  0  0  0  0  0  0  0
    6.4710  -29.0340    3.6690 C   0  0  0  0  0  0  0  0  0  0  0
    6.2460  -30.0660    2.8260 N   0  0  0  0  0  0  0  0  0  0  0
    6.9730  -29.2540    4.7960 O   0  0  0  0  0  0  0  0  0  0  0
    6.5280  -31.4290    3.1300 C   0  0  2  0  0  0  0  0  0  0  0
    8.0490  -31.6740    3.1720 C   0  0  0  0  0  0  0  0  0  0  0
    5.8900  -32.3330    2.0510 C   0  0  0  0  0  0  0  0  0  0  0
    4.4260  -32.1570    1.9490 C   0  0  0  0  0  0  0  0  0  0  0
    3.5900  -32.5240    3.0240 C   0  0  0  0  0  0  0  0  0  0  0
    2.1980  -32.3500    2.9360 C   0  0  0  0  0  0  0  0  0  0  0
    1.6290  -31.8080    1.7710 C   0  0  0  0  0  0  0  0  0  0  0
    2.4540  -31.4430    0.6930 C   0  0  0  0  0  0  0  0  0  0  0
    3.8460  -31.6190    0.7820 C   0  0  0  0  0  0  0  0  0  0  0
    3.3520  -21.5820    0.8690 C   0  0  0  0  0  0  0  0  0  0  0
    2.9340  -20.3440    0.3590 C   0  0  0  0  0  0  0  0  0  0  0
    3.1040  -20.0540   -1.0030 C   0  0  0  0  0  0  0  0  0  0  0
    3.6950  -20.9930   -1.8750 C   0  0  0  0  0  0  0  0  0  0  0
    4.1070  -22.2350   -1.3400 C   0  0  0  0  0  0  0  0  0  0  0
    3.8630  -20.6470   -3.3120 C   0  0  0  0  0  0  0  0  0  0  0
    4.4540  -21.6370   -4.0640 F   0  0  0  0  0  0  0  0  0  0  0
    2.6400  -20.3890   -3.8820 F   0  0  0  0  0  0  0  0  0  0  0
    4.6470  -19.5260   -3.4400 F   0  0  0  0  0  0  0  0  0  0  0
    0.2900  -31.6410    1.6930 O   0  0  0  0  0  0  0  0  0  0  0
    8.3140  -33.0440    3.4620 O   0  0  0  0  0  0  0  0  0  0  0
    9.6840  -33.4340    3.5020 C   0  0  0  0  0  0  0  0  0  0  0
    3.7940  -24.9670   -1.1440 H   0  0  0  0  0  0  0  0  0  0  0
    4.4960  -27.0850   -0.2730 H   0  0  0  0  0  0  0  0  0  0  0
    5.0580  -23.0800    2.3970 H   0  0  0  0  0  0  0  0  0  0  0
    6.7350  -26.7250    5.0210 H   0  0  0  0  0  0  0  0  0  0  0
    6.1070  -23.5310    6.2880 H   0  0  0  0  0  0  0  0  0  0  0
    5.8280  -29.8640    1.9740 H   0  0  0  0  0  0  0  0  0  0  0
    6.1060  -31.6840    4.1050 H   0  0  0  0  0  0  0  0  0  0  0
    8.4850  -31.4130    2.2060 H   0  0  0  0  0  0  0  0  0  0  0
    8.5010  -31.0530    3.9470 H   0  0  0  0  0  0  0  0  0  0  0
    6.3650  -32.1110    1.0930 H   0  0  0  0  0  0  0  0  0  0  0
    6.0980  -33.3760    2.2930 H   0  0  0  0  0  0  0  0  0  0  0
    3.9950  -32.9180    3.8740 H   0  0  0  0  0  0  0  0  0  0  0
    1.6010  -32.6170    3.7190 H   0  0  0  0  0  0  0  0  0  0  0
    2.0450  -31.0500   -0.1550 H   0  0  0  0  0  0  0  0  0  0  0
    4.4370  -31.3490   -0.0050 H   0  0  0  0  0  0  0  0  0  0  0
    3.2070  -21.7730    1.8610 H   0  0  0  0  0  0  0  0  0  0  0
    2.5050  -19.6560    0.9780 H   0  0  0  0  0  0  0  0  0  0  0
    2.7960  -19.1500   -1.3620 H   0  0  0  0  0  0  0  0  0  0  0
    4.5450  -22.9150   -1.9630 H   0  0  0  0  0  0  0  0  0  0  0
   -0.0250  -31.2560    0.8490 H   0  0  0  0  0  0  0  0  0  0  0
    9.7460  -34.4980    3.7270 H   0  0  0  0  0  0  0  0  0  0  0
   10.1510  -33.2440    2.5360 H   0  0  0  0  0  0  0  0  0  0  0
   10.2070  -32.8720    4.2770 H   0  0  0  0  0  0  0  0  0  0  0
  1  2  2  0  0  0  0
  1  4  1  0  0  0  0
  1 11  1  0  0  0  0
  2  3  1  0  0  0  0
  2 39  1  0  0  0  0
  3  6  2  0  0  0  0
  3 40  1  0  0  0  0
  4  5  2  0  0  0  0
  4 41  1  0  0  0  0
  5  6  1  0  0  0  0
  5 10  1  0  0  0  0
  6  7  1  0  0  0  0
  7  8  2  0  0  0  0
  8  9  1  0  0  0  0
  8 15  1  0  0  0  0
  9 10  2  0  0  0  0
  9 42  1  0  0  0  0
 10 12  1  0  0  0  0
 11 27  2  0  0  0  0
 11 31  1  0  0  0  0
 12 13  2  0  0  0  0
 12 14  1  0  0  0  0
 14 43  1  0  0  0  0
 15 16  1  0  0  0  0
 15 17  2  0  0  0  0
 18 16  1  1  0  0  0
 16 44  1  0  0  0  0
 18 19  1  0  0  0  0
 18 20  1  0  0  0  0
 18 45  1  0  0  0  0
 19 37  1  0  0  0  0
 19 46  1  0  0  0  0
 19 47  1  0  0  0  0
 20 21  1  0  0  0  0
 20 48  1  0  0  0  0
 20 49  1  0  0  0  0
 21 22  2  0  0  0  0
 21 26  1  0  0  0  0
 22 23  1  0  0  0  0
 22 50  1  0  0  0  0
 23 24  2  0  0  0  0
 23 51  1  0  0  0  0
 24 25  1  0  0  0  0
 24 36  1  0  0  0  0
 25 26  2  0  0  0  0
 25 52  1  0  0  0  0
 26 53  1  0  0  0  0
 27 28  1  0  0  0  0
 27 54  1  0  0  0  0
 28 29  2  0  0  0  0
 28 55  1  0  0  0  0
 29 30  1  0  0  0  0
 29 56  1  0  0  0  0
 30 31  2  0  0  0  0
 30 32  1  0  0  0  0
 31 57  1  0  0  0  0
 32 33  1  0  0  0  0
 32 34  1  0  0  0  0
 32 35  1  0  0  0  0
 36 58  1  0  0  0  0
 37 38  1  0  0  0  0
 38 59  1  0  0  0  0
 38 60  1  0  0  0  0
 38 61  1  0  0  0  0
M  END
> <From>
www.bindingDB.org

> <BindingDB Reactant_set_id>
50077211

> <Ligand InChI>
InChI=1S/C28H23F3N2O5/c1-38-15-20(11-16-5-8-21(34)9-6-16)32-26(35)25-14-23(27(36)37)22-13-18(7-10-24(22)33-25)17-3-2-4-19(12-17)28(29,30)31/h2-10,12-14,20,34H,11,15H2,1H3,(H,32,35)(H,36,37)/t20-/m0/s1

> <Ligand InChI Key>
DLJWCYCMLMVSML-FQEVSTJZSA-N

> <BindingDB MonomerID>
50444919

> <BindingDB Ligand Name>
CHEMBL3099752

> <Target Name Assigned by Curator or DataSource>
Cyclin-dependent kinase 2

> <Target Source Organism According to Curator or DataSource>
Homo sapiens

> <Ki (nM)>
 100

> <IC50 (nM)>


> <Kd (nM)>


> <EC50 (nM)>


> <kon (M-1-s-1)>


> <koff (s-1)>


> <pH>


> <Temp C>


> <Curation/DataSource>
ChEMBL

> <Article DOI>
10.1016/j.bmcl.2013.11.041

> <PMID>
24332088

> <PubChem AID>


> <Patent Number>


> <Authors>
Deng, Y; Shipps, GW; Zhao, L; Siddiqui, MA; Popovici-Muller, J; Curran, PJ; Duca, JS; Hruza, AW; Fischmann, TO; Madison, VS; Zhang, R; McNemar, CW; Mayhood, TW; Syto, R; Annis, A; Kirschmeier, P; Lees, EM; Parry, DA; Windsor, WT

> <Institution>
Merck Research Laboratories

> <Link to Ligand in BindingDB>
http://www.bindingdb.org/bind/chemsearch/marvin/MolStructure.jsp?monomerid=50444919

> <Link to Ligand-Target Pair in BindingDB>
http://www.bindingdb.org/jsp/dbsearch/PrimarySearch_ki.jsp?energyterm=kJ/mole&tag=pol&polymerid=796&target=Cyclin-dependent+kinase+2&column=ki&startPg=0&Increment=50&submit=Search

> <Link to Ligand-Target Pair in BindingDB>
http://www.bindingdb.org/jsp/dbsearch/PrimarySearch_ki.jsp?energyterm=kJ/mole&tag=r21&monomerid=50444919&enzyme=Cyclin-dependent+kinase+2&column=ki&startPg=0&Increment=50&submit=Search

> <Ligand HET ID in PDB>


> <PDB ID(s) for Ligand-Target Complex>


> <PubChem CID>
57602171

> <PubChem SID>
194942815

> <ChEBI ID of Ligand>


> <ChEMBL ID of Ligand>
CHEMBL3099752

> <DrugBank ID of Ligand>


> <IUPHAR_GRAC ID of Ligand>


> <KEGG ID of Ligand>


> <ZINC ID of Ligand>


> <Number of Protein Chains in Target (bigger than 1 implies a multichain complex)>
1

> <BindingDB Target Chain Sequence>
MENFQKVEKIGEGTYGVVYKARNKLTGEVVALKKIRLDTETEGVPSTAIREISLLKELNHPNIVKLLDVIHTENKLYLVFEFLHQDLKKFMDASALTGIPLPLIKSYLFQLLQGLAFCHSHRVLHRDLKPQNLLINTEGAIKLADFGLARAFGVPVRTYTHEVVTLWYRAPEILLGCKYYSTAVDIWSLGCIFAEMVTRRALFPGDSEIDQLFRIFRTLGTPDEVVWPGVTSMPDYKPSFPKWARQDFSKVVPPLDEDGRSLLSQMLHYDPNKRISAKAALAHPFFQDVTKPVPHLRL

> <PDB ID(s) of Target Chain>
1CKP,1DI8,1DM2,1E1V,1E1X,1E9H,1F5Q,1FIN,1FQ1,1FVT,1FVV,1G5S,1GIH,1GY3,1GZ8,1H00,1H01,1H07,1H08,1H0V,1H0W,1H1P,1H1Q,1H1R,1H1S,1H24,1H25,1H26,1H27,1H28,1HCK,1HCL,1JST,1JSU,1JSV,1JVP,1KE5,1KE6,1KE7,1KE8,1KE9,1OGU,1OI9,1OIQ,1OIR,1OIU,1OIY,1OKV,1OKW,1OL1,1OL2,1P2A,1P5E,1PF8,1PKD,1PW2,1PXI,1PXJ,1PXK,1PXL,1PXM,1PXN,1PXO,1PXP,1PYE,1QMZ,1R78,1URC,1URW,1V1K,1VYW,1VYZ,1W0X,1W8C,1W98,1WCC,1Y8Y,1Y91,1YKR,2A0C,2A4L,2B52,2B53,2B54,2B55,2BHE,2BHH,2BKZ,2BPM,2BTR,2BTS,2C4G,2C5N,2C5O,2C5V,2C5X,2C5Y,2C68,2C69,2C6I,2C6K,2C6L,2C6M,2C6O,2C6T,2CCH,2CCI,2CJM,2CLX,2DUV,2EXM,2FVD,2G9X,2I40,2J9M,2JGZ,2R3F,2R3G,2R3H,2R3I,2R3J,2R3K,2R3L,2R3M,2R3N,2R3O,2R3P,2R3Q,2R3R,2R64,2UUE,2UZB,2UZD,2UZE,2UZL,2UZN,2UZO,2V0D,2V22,2VTA,2VTH,2VTI,2VTJ,2VTL,2VTM,2VTN,2VTO,2VTP,2VTQ,2VTR,2VTS,2VTT,2VU3,2VV9,2W05,2W06,2W17,2W1H,2WEV,2WFY,2WHB,2WIH,2WIP,2WMA,2WMB,2WPA,2WXV,2X1N,2XMY,2XNB,3BHT,3BHU,3BHV,3DDP,3DDQ,3DOG,3EID,3EJ1,3EOC,3EZR,3EZV,3F5X,3FZ1,3IG7,3IGG,3LE6,3LFN,3LFQ,3LFS,3MY5,3NS9,3PJ8,3PXF,3PXQ,3PXR,3PXY,3PXZ,3PY0,3PY1,3QHR,3QHW,3QL8,3QQF,3QQG,3QQH,3QQJ,3QQK,3QQL,3QRT,3QRU,3QTQ,3QTR,3QTS,3QTU,3QTW,3QTX,3QTZ,3QU0,3QWJ,3QWK,3QX2,3QX4,3QXO,3QXP,3QZF,3QZG,3QZH,3QZI,3R1Q,3R1S,3R1Y,3R28,3R6X,3R71,3R73,3R7E,3R7I,3R7U,3R7V,3R7Y,3R83,3R8L,3R8M,3R8P,3R8U,3R8V,3R8Z,3R9D,3R9H,3R9N,3R9O,3RAH,3RAI,3RAK,3RAL,3RJC,3RK5,3RK7,3RK9,3RKB,3RM6,3RM7,3RMF,3RNI,3ROY,3RPO,3RPR,3RPV,3RPY,3RZB,3S00,3S0O,3S1H,3S2P,3SQQ,3SW4,3SW7,3TI1,3TIY,3TIZ,3TNW,3ULI,3UNJ,3UNK,3WBL,4ACM,4BCK,4BCM,4BCN,4BCO,4BCP,4BCQ,4BGH,4BZD,4CFM,4CFN,4CFU,4CFV,4CFW,4CFX,4D1X,4D1Z,4EK3,4EK4,4EK5,4EK6,4EK8,4EOQ,4EOR,4EOS,4ERW,4EZ3,4EZ7,4FKG,4FKI,4FKJ,4FKL,4FKO,4FKP,4FKQ,4FKR,4FKS,4FKT,4FKU,4FKV,4FKW,4FX3,4GCJ,4I3Z,4II5,4KD1,4LYN,4NJ3,4RJ3,5A14,5AND,5ANE,5ANG,5ANI,5ANJ,5ANK,5ANO,5CYI,5D1J,5FP5,5FP6,5IEV,5IEX,5IEY,5IF1,5JQ5,5JQ8,5K4J,5L2W,5LMK,5MHQ,5NEV,5OO0,5OSJ,5UQ1,5UQ2,5UQ3,6ATH,6GUB,6GUC,6GUE,6GUF,6GUH,6GUK,6GVA,6INL,6JGM,6OQI,6P3W,6Q3B,6Q3C,6Q3F,6Q48,6Q49,6Q4A,6Q4B,6Q4C,6Q4D,6Q4E,6Q4F,6Q4H,6Q4J,6Q4K,6RIJ,6SG4,7ACK,7B5L,7B5R,7B7S,7E34,7KJS,7M2F,7NVQ

> <UniProt (SwissProt) Recommended Name of Target Chain>
Cyclin-dependent kinase 2

> <UniProt (SwissProt) Entry Name of Target Chain>
CDK2_HUMAN

> <UniProt (SwissProt) Primary ID of Target Chain>
P24941

> <UniProt (SwissProt) Secondary ID(s) of Target Chain>
A8K7C6,O75100

> <UniProt (SwissProt) Alternative ID(s) of Target Chain>


> <UniProt (TrEMBL) Submitted Name of Target Chain>


> <UniProt (TrEMBL) Entry Name of Target Chain>


> <UniProt (TrEMBL) Primary ID of Target Chain>
A0A024RB77

> <UniProt (TrEMBL) Secondary ID(s) of Target Chain>


> <UniProt (TrEMBL) Alternative ID(s) of Target Chain>


$$$$
BindingDB_50444934_mol_1

Vconf v2.0 Academic SN VC001-00000579
 63 66  0  0  0  0  0  0  0  0999 V2000
   11.4270  -10.7030    0.6210 C   0  0  0  0  0  0  0  0  0  0  0
   11.7980  -11.8900   -0.0410 C   0  0  0  0  0  0  0  0  0  0  0
   12.9040  -12.6330    0.3990 C   0  0  0  0  0  0  0  0  0  0  0
   12.1760  -10.2730    1.7350 C   0  0  0  0  0  0  0  0  0  0  0
   13.3000  -11.0010    2.1890 C   0  0  0  0  0  0  0  0  0  0  0
   13.6510  -12.1940    1.5050 C   0  0  0  0  0  0  0  0  0  0  0
   14.7140  -12.9240    1.9190 N   0  0  0  0  0  0  0  0  0  0  0
   15.4930  -12.5860    2.9780 C   0  0  0  0  0  0  0  0  0  0  0
   15.1840  -11.4120    3.6910 C   0  0  0  0  0  0  0  0  0  0  0
   14.0920  -10.6090    3.2990 C   0  0  0  0  0  0  0  0  0  0  0
   10.2670   -9.9140    0.1600 C   0  0  0  0  0  0  0  0  0  0  0
   13.8490   -9.4560    4.0160 C   0  0  0  0  0  0  0  0  0  0  0
   13.7930   -9.4710    5.2350 O   0  0  0  0  0  0  0  0  0  0  0
   13.7220   -8.2910    3.4070 O   0  0  0  0  0  0  0  0  0  0  0
   16.5820  -13.4100    3.3250 C   0  0  0  0  0  0  0  0  0  0  0
   16.8660  -14.4880    2.5600 N   0  0  0  0  0  0  0  0  0  0  0
   17.2920  -13.1620    4.3270 O   0  0  0  0  0  0  0  0  0  0  0
   17.9360  -15.3970    2.8160 C   0  0  2  0  0  0  0  0  0  0  0
   19.2190  -14.7590    2.6390 C   0  0  0  0  0  0  0  0  0  0  0
   17.8290  -16.5970    1.8470 C   0  0  0  0  0  0  0  0  0  0  0
   16.5610  -17.3410    2.0000 C   0  0  0  0  0  0  0  0  0  0  0
   19.5010  -14.1810    1.4720 O   0  0  0  0  0  0  0  0  0  0  0
   20.0280  -14.7690    3.5570 O   0  0  0  0  0  0  0  0  0  0  0
   20.7560  -13.5230    1.2960 C   0  0  0  0  0  0  0  0  0  0  0
   15.6090  -17.3580    0.9600 C   0  0  0  0  0  0  0  0  0  0  0
   14.4020  -18.0620    1.1100 C   0  0  0  0  0  0  0  0  0  0  0
   14.1370  -18.7580    2.3010 C   0  0  0  0  0  0  0  0  0  0  0
   15.0820  -18.7490    3.3430 C   0  0  0  0  0  0  0  0  0  0  0
   16.2880  -18.0440    3.1910 C   0  0  0  0  0  0  0  0  0  0  0
   12.9750  -19.4330    2.4390 O   0  0  0  0  0  0  0  0  0  0  0
   10.6990   -8.5350   -0.3870 C   0  0  0  0  0  0  0  0  0  0  0
    9.5500   -7.7560   -0.8900 C   0  0  0  0  0  0  0  0  0  0  0
    9.4390   -7.4410   -2.2600 C   0  0  0  0  0  0  0  0  0  0  0
    8.3470   -6.6930   -2.7340 C   0  0  0  0  0  0  0  0  0  0  0
    7.3540   -6.2490   -1.8400 C   0  0  0  0  0  0  0  0  0  0  0
    7.4600   -6.5580   -0.4710 C   0  0  0  0  0  0  0  0  0  0  0
    8.5530   -7.3070   -0.0010 C   0  0  0  0  0  0  0  0  0  0  0
    6.0400   -5.3480   -2.4090 Cl  0  0  0  0  0  0  0  0  0  0  0
   11.2630  -12.2150   -0.8470 H   0  0  0  0  0  0  0  0  0  0  0
   13.1640  -13.4920   -0.0870 H   0  0  0  0  0  0  0  0  0  0  0
   11.8880   -9.4190    2.2140 H   0  0  0  0  0  0  0  0  0  0  0
   15.7580  -11.1350    4.4900 H   0  0  0  0  0  0  0  0  0  0  0
    9.7380  -10.4500   -0.6310 H   0  0  0  0  0  0  0  0  0  0  0
    9.5790   -9.7820    0.9980 H   0  0  0  0  0  0  0  0  0  0  0
   13.5830   -7.5420    4.0220 H   0  0  0  0  0  0  0  0  0  0  0
   16.2880  -14.6630    1.8010 H   0  0  0  0  0  0  0  0  0  0  0
   17.8590  -15.7630    3.8420 H   0  0  0  0  0  0  0  0  0  0  0
   17.9250  -16.2260    0.8240 H   0  0  0  0  0  0  0  0  0  0  0
   18.6590  -17.2820    2.0330 H   0  0  0  0  0  0  0  0  0  0  0
   20.8010  -13.1040    0.2900 H   0  0  0  0  0  0  0  0  0  0  0
   20.8590  -12.7160    2.0230 H   0  0  0  0  0  0  0  0  0  0  0
   21.5720  -14.2350    1.4240 H   0  0  0  0  0  0  0  0  0  0  0
   15.7910  -16.8530    0.0910 H   0  0  0  0  0  0  0  0  0  0  0
   13.7180  -18.0670    0.3530 H   0  0  0  0  0  0  0  0  0  0  0
   14.8930  -19.2530    4.2090 H   0  0  0  0  0  0  0  0  0  0  0
   16.9680  -18.0430    3.9520 H   0  0  0  0  0  0  0  0  0  0  0
   12.8700  -19.8940    3.2970 H   0  0  0  0  0  0  0  0  0  0  0
   11.1890   -7.9600    0.4020 H   0  0  0  0  0  0  0  0  0  0  0
   11.4240   -8.6930   -1.1890 H   0  0  0  0  0  0  0  0  0  0  0
   10.1530   -7.7560   -2.9160 H   0  0  0  0  0  0  0  0  0  0  0
    8.2840   -6.4750   -3.7290 H   0  0  0  0  0  0  0  0  0  0  0
    6.7480   -6.2420    0.1890 H   0  0  0  0  0  0  0  0  0  0  0
    8.6230   -7.5230    0.9940 H   0  0  0  0  0  0  0  0  0  0  0
  1  2  2  0  0  0  0
  1  4  1  0  0  0  0
  1 11  1  0  0  0  0
  2  3  1  0  0  0  0
  2 39  1  0  0  0  0
  3  6  2  0  0  0  0
  3 40  1  0  0  0  0
  4  5  2  0  0  0  0
  4 41  1  0  0  0  0
  5  6  1  0  0  0  0
  5 10  1  0  0  0  0
  6  7  1  0  0  0  0
  7  8  2  0  0  0  0
  8  9  1  0  0  0  0
  8 15  1  0  0  0  0
  9 10  2  0  0  0  0
  9 42  1  0  0  0  0
 10 12  1  0  0  0  0
 11 31  1  0  0  0  0
 11 43  1  0  0  0  0
 11 44  1  0  0  0  0
 12 13  2  0  0  0  0
 12 14  1  0  0  0  0
 14 45  1  0  0  0  0
 15 16  1  0  0  0  0
 15 17  2  0  0  0  0
 18 16  1  1  0  0  0
 16 46  1  0  0  0  0
 18 19  1  0  0  0  0
 18 20  1  0  0  0  0
 18 47  1  0  0  0  0
 19 22  1  0  0  0  0
 19 23  2  0  0  0  0
 20 21  1  0  0  0  0
 20 48  1  0  0  0  0
 20 49  1  0  0  0  0
 21 25  2  0  0  0  0
 21 29  1  0  0  0  0
 22 24  1  0  0  0  0
 24 50  1  0  0  0  0
 24 51  1  0  0  0  0
 24 52  1  0  0  0  0
 25 26  1  0  0  0  0
 25 53  1  0  0  0  0
 26 27  2  0  0  0  0
 26 54  1  0  0  0  0
 27 28  1  0  0  0  0
 27 30  1  0  0  0  0
 28 29  2  0  0  0  0
 28 55  1  0  0  0  0
 29 56  1  0  0  0  0
 30 57  1  0  0  0  0
 31 32  1  0  0  0  0
 31 58  1  0  0  0  0
 31 59  1  0  0  0  0
 32 33  2  0  0  0  0
 32 37  1  0  0  0  0
 33 34  1  0  0  0  0
 33 60  1  0  0  0  0
 34 35  2  0  0  0  0
 34 61  1  0  0  0  0
 35 36  1  0  0  0  0
 35 38  1  0  0  0  0
 36 37  2  0  0  0  0
 36 62  1  0  0  0  0
 37 63  1  0  0  0  0
M  END
> <From>
www.bindingDB.org

> <BindingDB Reactant_set_id>
50077207

> <Ligand InChI>
InChI=1S/C29H25ClN2O6/c1-38-29(37)26(15-19-6-11-21(33)12-7-19)32-27(34)25-16-23(28(35)36)22-14-18(8-13-24(22)31-25)3-2-17-4-9-20(30)10-5-17/h4-14,16,26,33H,2-3,15H2,1H3,(H,32,34)(H,35,36)/t26-/m0/s1

> <Ligand InChI Key>
ZASXNSSSOJQGOZ-SANMLTNESA-N

> <BindingDB MonomerID>
50444934

> <BindingDB Ligand Name>
CHEMBL3099762

> <Target Name Assigned by Curator or DataSource>
Cyclin-dependent kinase 2

> <Target Source Organism According to Curator or DataSource>
Homo sapiens

> <Ki (nM)>
<100

> <IC50 (nM)>


> <Kd (nM)>


> <EC50 (nM)>


> <kon (M-1-s-1)>


> <koff (s-1)>


> <pH>


> <Temp C>


> <Curation/DataSource>
ChEMBL

> <Article DOI>
10.1016/j.bmcl.2013.11.041

> <PMID>
24332088

> <PubChem AID>


> <Patent Number>


> <Authors>
Deng, Y; Shipps, GW; Zhao, L; Siddiqui, MA; Popovici-Muller, J; Curran, PJ; Duca, JS; Hruza, AW; Fischmann, TO; Madison, VS; Zhang, R; McNemar, CW; Mayhood, TW; Syto, R; Annis, A; Kirschmeier, P; Lees, EM; Parry, DA; Windsor, WT

> <Institution>
Merck Research Laboratories

> <Link to Ligand in BindingDB>
http://www.bindingdb.org/bind/chemsearch/marvin/MolStructure.jsp?monomerid=50444934

> <Link to Ligand-Target Pair in BindingDB>
http://www.bindingdb.org/jsp/dbsearch/PrimarySearch_ki.jsp?energyterm=kJ/mole&tag=pol&polymerid=796&target=Cyclin-dependent+kinase+2&column=ki&startPg=0&Increment=50&submit=Search

> <Link to Ligand-Target Pair in BindingDB>
http://www.bindingdb.org/jsp/dbsearch/PrimarySearch_ki.jsp?energyterm=kJ/mole&tag=r21&monomerid=50444934&enzyme=Cyclin-dependent+kinase+2&column=ki&startPg=0&Increment=50&submit=Search

> <Ligand HET ID in PDB>


> <PDB ID(s) for Ligand-Target Complex>


> <PubChem CID>
16050624

> <PubChem SID>
194942830

> <ChEBI ID of Ligand>


> <ChEMBL ID of Ligand>
CHEMBL3099762

> <DrugBank ID of Ligand>


> <IUPHAR_GRAC ID of Ligand>


> <KEGG ID of Ligand>


> <ZINC ID of Ligand>


> <Number of Protein Chains in Target (bigger than 1 implies a multichain complex)>
1

> <BindingDB Target Chain Sequence>
MENFQKVEKIGEGTYGVVYKARNKLTGEVVALKKIRLDTETEGVPSTAIREISLLKELNHPNIVKLLDVIHTENKLYLVFEFLHQDLKKFMDASALTGIPLPLIKSYLFQLLQGLAFCHSHRVLHRDLKPQNLLINTEGAIKLADFGLARAFGVPVRTYTHEVVTLWYRAPEILLGCKYYSTAVDIWSLGCIFAEMVTRRALFPGDSEIDQLFRIFRTLGTPDEVVWPGVTSMPDYKPSFPKWARQDFSKVVPPLDEDGRSLLSQMLHYDPNKRISAKAALAHPFFQDVTKPVPHLRL

> <PDB ID(s) of Target Chain>
1CKP,1DI8,1DM2,1E1V,1E1X,1E9H,1F5Q,1FIN,1FQ1,1FVT,1FVV,1G5S,1GIH,1GY3,1GZ8,1H00,1H01,1H07,1H08,1H0V,1H0W,1H1P,1H1Q,1H1R,1H1S,1H24,1H25,1H26,1H27,1H28,1HCK,1HCL,1JST,1JSU,1JSV,1JVP,1KE5,1KE6,1KE7,1KE8,1KE9,1OGU,1OI9,1OIQ,1OIR,1OIU,1OIY,1OKV,1OKW,1OL1,1OL2,1P2A,1P5E,1PF8,1PKD,1PW2,1PXI,1PXJ,1PXK,1PXL,1PXM,1PXN,1PXO,1PXP,1PYE,1QMZ,1R78,1URC,1URW,1V1K,1VYW,1VYZ,1W0X,1W8C,1W98,1WCC,1Y8Y,1Y91,1YKR,2A0C,2A4L,2B52,2B53,2B54,2B55,2BHE,2BHH,2BKZ,2BPM,2BTR,2BTS,2C4G,2C5N,2C5O,2C5V,2C5X,2C5Y,2C68,2C69,2C6I,2C6K,2C6L,2C6M,2C6O,2C6T,2CCH,2CCI,2CJM,2CLX,2DUV,2EXM,2FVD,2G9X,2I40,2J9M,2JGZ,2R3F,2R3G,2R3H,2R3I,2R3J,2R3K,2R3L,2R3M,2R3N,2R3O,2R3P,2R3Q,2R3R,2R64,2UUE,2UZB,2UZD,2UZE,2UZL,2UZN,2UZO,2V0D,2V22,2VTA,2VTH,2VTI,2VTJ,2VTL,2VTM,2VTN,2VTO,2VTP,2VTQ,2VTR,2VTS,2VTT,2VU3,2VV9,2W05,2W06,2W17,2W1H,2WEV,2WFY,2WHB,2WIH,2WIP,2WMA,2WMB,2WPA,2WXV,2X1N,2XMY,2XNB,3BHT,3BHU,3BHV,3DDP,3DDQ,3DOG,3EID,3EJ1,3EOC,3EZR,3EZV,3F5X,3FZ1,3IG7,3IGG,3LE6,3LFN,3LFQ,3LFS,3MY5,3NS9,3PJ8,3PXF,3PXQ,3PXR,3PXY,3PXZ,3PY0,3PY1,3QHR,3QHW,3QL8,3QQF,3QQG,3QQH,3QQJ,3QQK,3QQL,3QRT,3QRU,3QTQ,3QTR,3QTS,3QTU,3QTW,3QTX,3QTZ,3QU0,3QWJ,3QWK,3QX2,3QX4,3QXO,3QXP,3QZF,3QZG,3QZH,3QZI,3R1Q,3R1S,3R1Y,3R28,3R6X,3R71,3R73,3R7E,3R7I,3R7U,3R7V,3R7Y,3R83,3R8L,3R8M,3R8P,3R8U,3R8V,3R8Z,3R9D,3R9H,3R9N,3R9O,3RAH,3RAI,3RAK,3RAL,3RJC,3RK5,3RK7,3RK9,3RKB,3RM6,3RM7,3RMF,3RNI,3ROY,3RPO,3RPR,3RPV,3RPY,3RZB,3S00,3S0O,3S1H,3S2P,3SQQ,3SW4,3SW7,3TI1,3TIY,3TIZ,3TNW,3ULI,3UNJ,3UNK,3WBL,4ACM,4BCK,4BCM,4BCN,4BCO,4BCP,4BCQ,4BGH,4BZD,4CFM,4CFN,4CFU,4CFV,4CFW,4CFX,4D1X,4D1Z,4EK3,4EK4,4EK5,4EK6,4EK8,4EOQ,4EOR,4EOS,4ERW,4EZ3,4EZ7,4FKG,4FKI,4FKJ,4FKL,4FKO,4FKP,4FKQ,4FKR,4FKS,4FKT,4FKU,4FKV,4FKW,4FX3,4GCJ,4I3Z,4II5,4KD1,4LYN,4NJ3,4RJ3,5A14,5AND,5ANE,5ANG,5ANI,5ANJ,5ANK,5ANO,5CYI,5D1J,5FP5,5FP6,5IEV,5IEX,5IEY,5IF1,5JQ5,5JQ8,5K4J,5L2W,5LMK,5MHQ,5NEV,5OO0,5OSJ,5UQ1,5UQ2,5UQ3,6ATH,6GUB,6GUC,6GUE,6GUF,6GUH,6GUK,6GVA,6INL,6JGM,6OQI,6P3W,6Q3B,6Q3C,6Q3F,6Q48,6Q49,6Q4A,6Q4B,6Q4C,6Q4D,6Q4E,6Q4F,6Q4H,6Q4J,6Q4K,6RIJ,6SG4,7ACK,7B5L,7B5R,7B7S,7E34,7KJS,7M2F,7NVQ

> <UniProt (SwissProt) Recommended Name of Target Chain>
Cyclin-dependent kinase 2

> <UniProt (SwissProt) Entry Name of Target Chain>
CDK2_HUMAN

> <UniProt (SwissProt) Primary ID of Target Chain>
P24941

> <UniProt (SwissProt) Secondary ID(s) of Target Chain>
A8K7C6,O75100

> <UniProt (SwissProt) Alternative ID(s) of Target Chain>


> <UniProt (TrEMBL) Submitted Name of Target Chain>


> <UniProt (TrEMBL) Entry Name of Target Chain>


> <UniProt (TrEMBL) Primary ID of Target Chain>
A0A024RB77

> <UniProt (TrEMBL) Secondary ID(s) of Target Chain>


> <UniProt (TrEMBL) Alternative ID(s) of Target Chain>


$$$$
BindingDB_50444935_mol_1

Vconf v2.0 Academic SN VC001-00000579
 60 63  0  0  0  0  0  0  0  0999 V2000
    7.2610   -7.2950    0.5210 C   0  0  0  0  0  0  0  0  0  0  0
    7.1710   -8.5530   -0.1190 C   0  0  0  0  0  0  0  0  0  0  0
    7.6330   -9.7210    0.5050 C   0  0  0  0  0  0  0  0  0  0  0
    7.8340   -7.2500    1.8160 C   0  0  0  0  0  0  0  0  0  0  0
    8.3160   -8.4130    2.4620 C   0  0  0  0  0  0  0  0  0  0  0
    8.2000   -9.6540    1.7860 C   0  0  0  0  0  0  0  0  0  0  0
    8.6370  -10.7920    2.3760 N   0  0  0  0  0  0  0  0  0  0  0
    9.1980  -10.8320    3.6110 C   0  0  0  0  0  0  0  0  0  0  0
    9.3340   -9.6250    4.3240 C   0  0  0  0  0  0  0  0  0  0  0
    8.9030   -8.4090    3.7550 C   0  0  0  0  0  0  0  0  0  0  0
    6.7910   -6.1080   -0.1200 C   0  0  0  0  0  0  0  0  0  0  0
    9.0830   -7.2600    4.4960 C   0  0  0  0  0  0  0  0  0  0  0
    9.6230   -6.2730    4.0200 O   0  0  0  0  0  0  0  0  0  0  0
    8.7380   -7.2150    5.7700 O   0  0  0  0  0  0  0  0  0  0  0
    9.6260  -12.0680    4.1330 C   0  0  0  0  0  0  0  0  0  0  0
    9.4150  -13.1960    3.4160 N   0  0  0  0  0  0  0  0  0  0  0
   10.1890  -12.1370    5.2500 O   0  0  0  0  0  0  0  0  0  0  0
    9.7990  -14.5060    3.8310 C   0  0  2  0  0  0  0  0  0  0  0
   10.6330  -15.0850    2.8070 C   0  0  0  0  0  0  0  0  0  0  0
    8.5430  -15.3800    4.0410 C   0  0  0  0  0  0  0  0  0  0  0
    7.6710  -14.8710    5.1200 C   0  0  0  0  0  0  0  0  0  0  0
   10.1470  -15.2150    1.5730 O   0  0  0  0  0  0  0  0  0  0  0
   11.7670  -15.4480    3.0860 O   0  0  0  0  0  0  0  0  0  0  0
   10.9650  -15.7760    0.5460 C   0  0  0  0  0  0  0  0  0  0  0
    8.1290  -14.8550    6.4540 C   0  0  0  0  0  0  0  0  0  0  0
    7.3060  -14.3680    7.4840 C   0  0  0  0  0  0  0  0  0  0  0
    6.0160  -13.8950    7.1900 C   0  0  0  0  0  0  0  0  0  0  0
    5.5510  -13.9100    5.8640 C   0  0  0  0  0  0  0  0  0  0  0
    6.3750  -14.3960    4.8340 C   0  0  0  0  0  0  0  0  0  0  0
    5.2300  -13.4300    8.1850 O   0  0  0  0  0  0  0  0  0  0  0
    6.1760   -5.0720    0.6200 C   0  0  0  0  0  0  0  0  0  0  0
    5.7160   -3.9060   -0.0110 C   0  0  0  0  0  0  0  0  0  0  0
    5.8640   -3.7540   -1.3970 C   0  0  0  0  0  0  0  0  0  0  0
    6.4720   -4.7620   -2.1750 C   0  0  0  0  0  0  0  0  0  0  0
    6.9280   -5.9280   -1.5180 C   0  0  0  0  0  0  0  0  0  0  0
    6.6160   -4.5650   -3.6420 C   0  0  0  0  0  0  0  0  0  0  0
    7.2290   -5.6120   -4.2930 F   0  0  0  0  0  0  0  0  0  0  0
    5.3800   -4.4030   -4.2200 F   0  0  0  0  0  0  0  0  0  0  0
    7.3660   -3.4420   -3.8980 F   0  0  0  0  0  0  0  0  0  0  0
    6.7540   -8.6330   -1.0480 H   0  0  0  0  0  0  0  0  0  0  0
    7.5520  -10.6180    0.0260 H   0  0  0  0  0  0  0  0  0  0  0
    7.9110   -6.3500    2.2900 H   0  0  0  0  0  0  0  0  0  0  0
    9.7560   -9.6300    5.2560 H   0  0  0  0  0  0  0  0  0  0  0
    8.9430   -6.3600    6.2020 H   0  0  0  0  0  0  0  0  0  0  0
    8.9650  -13.1050    2.5610 H   0  0  0  0  0  0  0  0  0  0  0
   10.3690  -14.4760    4.7630 H   0  0  0  0  0  0  0  0  0  0  0
    7.9890  -15.4260    3.1000 H   0  0  0  0  0  0  0  0  0  0  0
    8.8530  -16.3960    4.2960 H   0  0  0  0  0  0  0  0  0  0  0
   10.4010  -15.8030   -0.3860 H   0  0  0  0  0  0  0  0  0  0  0
   11.8590  -15.1660    0.4050 H   0  0  0  0  0  0  0  0  0  0  0
   11.2580  -16.7920    0.8150 H   0  0  0  0  0  0  0  0  0  0  0
    9.0650  -15.1950    6.6770 H   0  0  0  0  0  0  0  0  0  0  0
    7.6470  -14.3580    8.4460 H   0  0  0  0  0  0  0  0  0  0  0
    4.6150  -13.5670    5.6460 H   0  0  0  0  0  0  0  0  0  0  0
    6.0290  -14.4000    3.8740 H   0  0  0  0  0  0  0  0  0  0  0
    4.3470  -13.1170    7.8960 H   0  0  0  0  0  0  0  0  0  0  0
    6.0450   -5.1610    1.6290 H   0  0  0  0  0  0  0  0  0  0  0
    5.2730   -3.1690    0.5390 H   0  0  0  0  0  0  0  0  0  0  0
    5.5260   -2.9010   -1.8450 H   0  0  0  0  0  0  0  0  0  0  0
    7.3810   -6.6550   -2.0730 H   0  0  0  0  0  0  0  0  0  0  0
  1  2  2  0  0  0  0
  1  4  1  0  0  0  0
  1 11  1  0  0  0  0
  2  3  1  0  0  0  0
  2 40  1  0  0  0  0
  3  6  2  0  0  0  0
  3 41  1  0  0  0  0
  4  5  2  0  0  0  0
  4 42  1  0  0  0  0
  5  6  1  0  0  0  0
  5 10  1  0  0  0  0
  6  7  1  0  0  0  0
  7  8  2  0  0  0  0
  8  9  1  0  0  0  0
  8 15  1  0  0  0  0
  9 10  2  0  0  0  0
  9 43  1  0  0  0  0
 10 12  1  0  0  0  0
 11 31  2  0  0  0  0
 11 35  1  0  0  0  0
 12 13  2  0  0  0  0
 12 14  1  0  0  0  0
 14 44  1  0  0  0  0
 15 16  1  0  0  0  0
 15 17  2  0  0  0  0
 18 16  1  1  0  0  0
 16 45  1  0  0  0  0
 18 19  1  0  0  0  0
 18 20  1  0  0  0  0
 18 46  1  0  0  0  0
 19 22  1  0  0  0  0
 19 23  2  0  0  0  0
 20 21  1  0  0  0  0
 20 47  1  0  0  0  0
 20 48  1  0  0  0  0
 21 25  2  0  0  0  0
 21 29  1  0  0  0  0
 22 24  1  0  0  0  0
 24 49  1  0  0  0  0
 24 50  1  0  0  0  0
 24 51  1  0  0  0  0
 25 26  1  0  0  0  0
 25 52  1  0  0  0  0
 26 27  2  0  0  0  0
 26 53  1  0  0  0  0
 27 28  1  0  0  0  0
 27 30  1  0  0  0  0
 28 29  2  0  0  0  0
 28 54  1  0  0  0  0
 29 55  1  0  0  0  0
 30 56  1  0  0  0  0
 31 32  1  0  0  0  0
 31 57  1  0  0  0  0
 32 33  2  0  0  0  0
 32 58  1  0  0  0  0
 33 34  1  0  0  0  0
 33 59  1  0  0  0  0
 34 35  2  0  0  0  0
 34 36  1  0  0  0  0
 35 60  1  0  0  0  0
 36 37  1  0  0  0  0
 36 38  1  0  0  0  0
 36 39  1  0  0  0  0
M  END
> <From>
www.bindingDB.org

> <BindingDB Reactant_set_id>
50077209

> <Ligand InChI>
InChI=1S/C28H21F3N2O6/c1-39-27(38)24(11-15-5-8-19(34)9-6-15)33-25(35)23-14-21(26(36)37)20-13-17(7-10-22(20)32-23)16-3-2-4-18(12-16)28(29,30)31/h2-10,12-14,24,34H,11H2,1H3,(H,33,35)(H,36,37)/t24-/m0/s1

> <Ligand InChI Key>
LQFYMROHWYBYDH-DEOSSOPVSA-N

> <BindingDB MonomerID>
50444935

> <BindingDB Ligand Name>
CHEMBL3099761

> <Target Name Assigned by Curator or DataSource>
Cyclin-dependent kinase 2

> <Target Source Organism According to Curator or DataSource>
Homo sapiens

> <Ki (nM)>
<100

> <IC50 (nM)>


> <Kd (nM)>


> <EC50 (nM)>


> <kon (M-1-s-1)>


> <koff (s-1)>


> <pH>


> <Temp C>


> <Curation/DataSource>
ChEMBL

> <Article DOI>
10.1016/j.bmcl.2013.11.041

> <PMID>
24332088

> <PubChem AID>


> <Patent Number>


> <Authors>
Deng, Y; Shipps, GW; Zhao, L; Siddiqui, MA; Popovici-Muller, J; Curran, PJ; Duca, JS; Hruza, AW; Fischmann, TO; Madison, VS; Zhang, R; McNemar, CW; Mayhood, TW; Syto, R; Annis, A; Kirschmeier, P; Lees, EM; Parry, DA; Windsor, WT

> <Institution>
Merck Research Laboratories

> <Link to Ligand in BindingDB>
http://www.bindingdb.org/bind/chemsearch/marvin/MolStructure.jsp?monomerid=50444935

> <Link to Ligand-Target Pair in BindingDB>
http://www.bindingdb.org/jsp/dbsearch/PrimarySearch_ki.jsp?energyterm=kJ/mole&tag=pol&polymerid=796&target=Cyclin-dependent+kinase+2&column=ki&startPg=0&Increment=50&submit=Search

> <Link to Ligand-Target Pair in BindingDB>
http://www.bindingdb.org/jsp/dbsearch/PrimarySearch_ki.jsp?energyterm=kJ/mole&tag=r21&monomerid=50444935&enzyme=Cyclin-dependent+kinase+2&column=ki&startPg=0&Increment=50&submit=Search

> <Ligand HET ID in PDB>


> <PDB ID(s) for Ligand-Target Complex>


> <PubChem CID>
16050724

> <PubChem SID>
194942831

> <ChEBI ID of Ligand>


> <ChEMBL ID of Ligand>
CHEMBL3099761

> <DrugBank ID of Ligand>


> <IUPHAR_GRAC ID of Ligand>


> <KEGG ID of Ligand>


> <ZINC ID of Ligand>


> <Number of Protein Chains in Target (bigger than 1 implies a multichain complex)>
1

> <BindingDB Target Chain Sequence>
MENFQKVEKIGEGTYGVVYKARNKLTGEVVALKKIRLDTETEGVPSTAIREISLLKELNHPNIVKLLDVIHTENKLYLVFEFLHQDLKKFMDASALTGIPLPLIKSYLFQLLQGLAFCHSHRVLHRDLKPQNLLINTEGAIKLADFGLARAFGVPVRTYTHEVVTLWYRAPEILLGCKYYSTAVDIWSLGCIFAEMVTRRALFPGDSEIDQLFRIFRTLGTPDEVVWPGVTSMPDYKPSFPKWARQDFSKVVPPLDEDGRSLLSQMLHYDPNKRISAKAALAHPFFQDVTKPVPHLRL

> <PDB ID(s) of Target Chain>
1CKP,1DI8,1DM2,1E1V,1E1X,1E9H,1F5Q,1FIN,1FQ1,1FVT,1FVV,1G5S,1GIH,1GY3,1GZ8,1H00,1H01,1H07,1H08,1H0V,1H0W,1H1P,1H1Q,1H1R,1H1S,1H24,1H25,1H26,1H27,1H28,1HCK,1HCL,1JST,1JSU,1JSV,1JVP,1KE5,1KE6,1KE7,1KE8,1KE9,1OGU,1OI9,1OIQ,1OIR,1OIU,1OIY,1OKV,1OKW,1OL1,1OL2,1P2A,1P5E,1PF8,1PKD,1PW2,1PXI,1PXJ,1PXK,1PXL,1PXM,1PXN,1PXO,1PXP,1PYE,1QMZ,1R78,1URC,1URW,1V1K,1VYW,1VYZ,1W0X,1W8C,1W98,1WCC,1Y8Y,1Y91,1YKR,2A0C,2A4L,2B52,2B53,2B54,2B55,2BHE,2BHH,2BKZ,2BPM,2BTR,2BTS,2C4G,2C5N,2C5O,2C5V,2C5X,2C5Y,2C68,2C69,2C6I,2C6K,2C6L,2C6M,2C6O,2C6T,2CCH,2CCI,2CJM,2CLX,2DUV,2EXM,2FVD,2G9X,2I40,2J9M,2JGZ,2R3F,2R3G,2R3H,2R3I,2R3J,2R3K,2R3L,2R3M,2R3N,2R3O,2R3P,2R3Q,2R3R,2R64,2UUE,2UZB,2UZD,2UZE,2UZL,2UZN,2UZO,2V0D,2V22,2VTA,2VTH,2VTI,2VTJ,2VTL,2VTM,2VTN,2VTO,2VTP,2VTQ,2VTR,2VTS,2VTT,2VU3,2VV9,2W05,2W06,2W17,2W1H,2WEV,2WFY,2WHB,2WIH,2WIP,2WMA,2WMB,2WPA,2WXV,2X1N,2XMY,2XNB,3BHT,3BHU,3BHV,3DDP,3DDQ,3DOG,3EID,3EJ1,3EOC,3EZR,3EZV,3F5X,3FZ1,3IG7,3IGG,3LE6,3LFN,3LFQ,3LFS,3MY5,3NS9,3PJ8,3PXF,3PXQ,3PXR,3PXY,3PXZ,3PY0,3PY1,3QHR,3QHW,3QL8,3QQF,3QQG,3QQH,3QQJ,3QQK,3QQL,3QRT,3QRU,3QTQ,3QTR,3QTS,3QTU,3QTW,3QTX,3QTZ,3QU0,3QWJ,3QWK,3QX2,3QX4,3QXO,3QXP,3QZF,3QZG,3QZH,3QZI,3R1Q,3R1S,3R1Y,3R28,3R6X,3R71,3R73,3R7E,3R7I,3R7U,3R7V,3R7Y,3R83,3R8L,3R8M,3R8P,3R8U,3R8V,3R8Z,3R9D,3R9H,3R9N,3R9O,3RAH,3RAI,3RAK,3RAL,3RJC,3RK5,3RK7,3RK9,3RKB,3RM6,3RM7,3RMF,3RNI,3ROY,3RPO,3RPR,3RPV,3RPY,3RZB,3S00,3S0O,3S1H,3S2P,3SQQ,3SW4,3SW7,3TI1,3TIY,3TIZ,3TNW,3ULI,3UNJ,3UNK,3WBL,4ACM,4BCK,4BCM,4BCN,4BCO,4BCP,4BCQ,4BGH,4BZD,4CFM,4CFN,4CFU,4CFV,4CFW,4CFX,4D1X,4D1Z,4EK3,4EK4,4EK5,4EK6,4EK8,4EOQ,4EOR,4EOS,4ERW,4EZ3,4EZ7,4FKG,4FKI,4FKJ,4FKL,4FKO,4FKP,4FKQ,4FKR,4FKS,4FKT,4FKU,4FKV,4FKW,4FX3,4GCJ,4I3Z,4II5,4KD1,4LYN,4NJ3,4RJ3,5A14,5AND,5ANE,5ANG,5ANI,5ANJ,5ANK,5ANO,5CYI,5D1J,5FP5,5FP6,5IEV,5IEX,5IEY,5IF1,5JQ5,5JQ8,5K4J,5L2W,5LMK,5MHQ,5NEV,5OO0,5OSJ,5UQ1,5UQ2,5UQ3,6ATH,6GUB,6GUC,6GUE,6GUF,6GUH,6GUK,6GVA,6INL,6JGM,6OQI,6P3W,6Q3B,6Q3C,6Q3F,6Q48,6Q49,6Q4A,6Q4B,6Q4C,6Q4D,6Q4E,6Q4F,6Q4H,6Q4J,6Q4K,6RIJ,6SG4,7ACK,7B5L,7B5R,7B7S,7E34,7KJS,7M2F,7NVQ

> <UniProt (SwissProt) Recommended Name of Target Chain>
Cyclin-dependent kinase 2

> <UniProt (SwissProt) Entry Name of Target Chain>
CDK2_HUMAN

> <UniProt (SwissProt) Primary ID of Target Chain>
P24941

> <UniProt (SwissProt) Secondary ID(s) of Target Chain>
A8K7C6,O75100

> <UniProt (SwissProt) Alternative ID(s) of Target Chain>


> <UniProt (TrEMBL) Submitted Name of Target Chain>


> <UniProt (TrEMBL) Entry Name of Target Chain>


> <UniProt (TrEMBL) Primary ID of Target Chain>
A0A024RB77

> <UniProt (TrEMBL) Secondary ID(s) of Target Chain>


> <UniProt (TrEMBL) Alternative ID(s) of Target Chain>


$$$$
Purvalanol

Vconf v2.0 Academic SN VC001-00000579
 52 54  0  0  0  0  0  0  0  0999 V2000
    3.3130   -2.9460    1.6520 Cl  0  0  0  0  0  0  0  0  0  0  0
    3.7810   -9.5990    1.5950 O   0  0  0  0  0  0  0  0  0  0  0
    6.2120   -8.1540    2.0150 N   0  0  0  0  0  0  0  0  0  0  0
   10.7720   -7.7290    0.6630 N   0  0  0  0  0  0  0  0  0  0  0
    8.4450   -8.0690    1.3470 N   0  0  0  0  0  0  0  0  0  0  0
    7.2850   -6.0670    1.7430 N   0  0  0  0  0  0  0  0  0  0  0
   10.7510   -5.4970    0.7190 N   0  0  0  0  0  0  0  0  0  0  0
    8.3470   -3.9380    1.4860 N   0  0  0  0  0  0  0  0  0  0  0
    4.9460   -7.5990    2.3630 C   0  0  2  0  0  0  0  0  0  0  0
    4.6280   -7.9120    3.8440 C   0  0  0  0  0  0  0  0  0  0  0
    3.9020   -8.1950    1.4010 C   0  0  0  0  0  0  0  0  0  0  0
    5.6810   -7.2680    4.7630 C   0  0  0  0  0  0  0  0  0  0  0
    3.2380   -7.3880    4.2470 C   0  0  0  0  0  0  0  0  0  0  0
   11.2280   -9.0730    0.5000 C   0  0  0  0  0  0  0  0  0  0  0
    9.5440   -7.3430    1.0340 C   0  0  0  0  0  0  0  0  0  0  0
    7.3030   -7.4260    1.7020 C   0  0  0  0  0  0  0  0  0  0  0
    9.5400   -5.9570    1.0650 C   0  0  0  0  0  0  0  0  0  0  0
    8.3620   -5.2940    1.4340 C   0  0  0  0  0  0  0  0  0  0  0
   11.4880   -6.5990    0.4770 C   0  0  0  0  0  0  0  0  0  0  0
   11.6830   -9.3280   -0.9470 C   0  0  0  0  0  0  0  0  0  0  0
   12.3740   -9.3830    1.4780 C   0  0  0  0  0  0  0  0  0  0  0
    7.3060   -3.1530    1.8740 C   0  0  0  0  0  0  0  0  0  0  0
    5.9550   -3.4330    1.5640 C   0  0  0  0  0  0  0  0  0  0  0
    7.6100   -1.9850    2.5990 C   0  0  0  0  0  0  0  0  0  0  0
    4.9260   -2.5810    2.0080 C   0  0  0  0  0  0  0  0  0  0  0
    6.5870   -1.1280    3.0380 C   0  0  0  0  0  0  0  0  0  0  0
    5.2450   -1.4280    2.7480 C   0  0  0  0  0  0  0  0  0  0  0
    3.1330  -10.0330    1.0020 H   0  0  0  0  0  0  0  0  0  0  0
    6.2910   -9.1190    1.9940 H   0  0  0  0  0  0  0  0  0  0  0
    9.1830   -3.4890    1.2840 H   0  0  0  0  0  0  0  0  0  0  0
    4.9360   -6.5140    2.2330 H   0  0  0  0  0  0  0  0  0  0  0
    4.6480   -8.9920    3.9960 H   0  0  0  0  0  0  0  0  0  0  0
    2.9340   -7.7220    1.5640 H   0  0  0  0  0  0  0  0  0  0  0
    4.2110   -8.0030    0.3730 H   0  0  0  0  0  0  0  0  0  0  0
    5.4300   -7.4620    5.8060 H   0  0  0  0  0  0  0  0  0  0  0
    6.6640   -7.6920    4.5550 H   0  0  0  0  0  0  0  0  0  0  0
    5.7110   -6.1910    4.5940 H   0  0  0  0  0  0  0  0  0  0  0
    3.0890   -7.5250    5.3190 H   0  0  0  0  0  0  0  0  0  0  0
    3.1560   -6.3270    4.0070 H   0  0  0  0  0  0  0  0  0  0  0
    2.4630   -7.9400    3.7170 H   0  0  0  0  0  0  0  0  0  0  0
   10.4130   -9.7660    0.7170 H   0  0  0  0  0  0  0  0  0  0  0
   12.4670   -6.5790    0.1910 H   0  0  0  0  0  0  0  0  0  0  0
   11.9630  -10.3750   -1.0620 H   0  0  0  0  0  0  0  0  0  0  0
   10.8650   -9.1010   -1.6310 H   0  0  0  0  0  0  0  0  0  0  0
   12.5410   -8.7000   -1.1900 H   0  0  0  0  0  0  0  0  0  0  0
   12.6650  -10.4290    1.3800 H   0  0  0  0  0  0  0  0  0  0  0
   13.2360   -8.7510    1.2620 H   0  0  0  0  0  0  0  0  0  0  0
   12.0410   -9.2000    2.5000 H   0  0  0  0  0  0  0  0  0  0  0
    5.7230   -4.2600    1.0130 H   0  0  0  0  0  0  0  0  0  0  0
    8.5810   -1.7590    2.8180 H   0  0  0  0  0  0  0  0  0  0  0
    6.8180   -0.2890    3.5690 H   0  0  0  0  0  0  0  0  0  0  0
    4.5090   -0.8010    3.0750 H   0  0  0  0  0  0  0  0  0  0  0
  1 25  1  0  0  0  0
  2 11  1  0  0  0  0
  2 28  1  0  0  0  0
  9  3  1  1  0  0  0
  3 16  1  0  0  0  0
  3 29  1  0  0  0  0
  4 14  1  0  0  0  0
  4 15  1  0  0  0  0
  4 19  1  0  0  0  0
  5 15  2  0  0  0  0
  5 16  1  0  0  0  0
  6 16  2  0  0  0  0
  6 18  1  0  0  0  0
  7 17  1  0  0  0  0
  7 19  2  0  0  0  0
  8 18  1  0  0  0  0
  8 22  1  0  0  0  0
  8 30  1  0  0  0  0
  9 10  1  0  0  0  0
  9 11  1  0  0  0  0
  9 31  1  0  0  0  0
 10 12  1  0  0  0  0
 10 13  1  0  0  0  0
 10 32  1  0  0  0  0
 11 33  1  0  0  0  0
 11 34  1  0  0  0  0
 12 35  1  0  0  0  0
 12 36  1  0  0  0  0
 12 37  1  0  0  0  0
 13 38  1  0  0  0  0
 13 39  1  0  0  0  0
 13 40  1  0  0  0  0
 14 20  1  0  0  0  0
 14 21  1  0  0  0  0
 14 41  1  0  0  0  0
 15 17  1  0  0  0  0
 17 18  2  0  0  0  0
 19 42  1  0  0  0  0
 20 43  1  0  0  0  0
 20 44  1  0  0  0  0
 20 45  1  0  0  0  0
 21 46  1  0  0  0  0
 21 47  1  0  0  0  0
 21 48  1  0  0  0  0
 22 23  2  0  0  0  0
 22 24  1  0  0  0  0
 23 25  1  0  0  0  0
 23 49  1  0  0  0  0
 24 26  2  0  0  0  0
 24 50  1  0  0  0  0
 25 27  2  0  0  0  0
 26 27  1  0  0  0  0
 26 51  1  0  0  0  0
 27 52  1  0  0  0  0
M  END
> <From>
www.bindingDB.org

> <BindingDB Reactant_set_id>
184851

> <Ligand InChI>
InChI=1S/C19H25ClN6O/c1-11(2)15(9-27)23-19-24-17(22-14-7-5-6-13(20)8-14)16-18(25-19)26(10-21-16)12(3)4/h5-8,10-12,15,27H,9H2,1-4H3,(H2,22,23,24,25)/t15-/m0/s1

> <Ligand InChI Key>
PMXCMJLOPOFPBT-HNNXBMFYSA-N

> <BindingDB MonomerID>
27216

> <BindingDB Ligand Name>
(2R)-2-({6-[(3-chlorophenyl)amino]-9-(propan-2-yl)-9H-purin-2-yl}amino)-3-methylbutan-1-ol::2,6,9-Trisubstitute purine, 1::CHEMBL23327::Purvalanol A

> <Target Name Assigned by Curator or DataSource>
Cyclin-dependent kinase 2

> <Target Source Organism According to Curator or DataSource>
Homo sapiens

> <Ki (nM)>
 100

> <IC50 (nM)>


> <Kd (nM)>


> <EC50 (nM)>


> <kon (M-1-s-1)>


> <koff (s-1)>


> <pH>


> <Temp C>


> <Curation/DataSource>
PDSP Ki

> <Article DOI>
10.1042/BJ20021535

> <PMID>
12534346

> <PubChem AID>


> <Patent Number>


> <Authors>
Bain, J; McLauchlan, H; Elliott, M; Cohen, P

> <Institution>
University of Dundee

> <Link to Ligand in BindingDB>
http://www.bindingdb.org/bind/chemsearch/marvin/MolStructure.jsp?monomerid=27216

> <Link to Ligand-Target Pair in BindingDB>
http://www.bindingdb.org/jsp/dbsearch/PrimarySearch_ki.jsp?energyterm=kJ/mole&tag=pol&polymerid=796&target=Cyclin-dependent+kinase+2&column=ki&startPg=0&Increment=50&submit=Search

> <Link to Ligand-Target Pair in BindingDB>
http://www.bindingdb.org/jsp/dbsearch/PrimarySearch_ki.jsp?energyterm=kJ/mole&tag=r21&monomerid=27216&enzyme=Cyclin-dependent+kinase+2&column=ki&startPg=0&Increment=50&submit=Search

> <Ligand HET ID in PDB>
P01

> <PDB ID(s) for Ligand-Target Complex>
1YOM,2Z7S,2IZU

> <PubChem CID>
456214

> <PubChem SID>
57298926

> <ChEBI ID of Ligand>
47600

> <ChEMBL ID of Ligand>
CHEMBL23327

> <DrugBank ID of Ligand>
DB04751

> <IUPHAR_GRAC ID of Ligand>


> <KEGG ID of Ligand>


> <ZINC ID of Ligand>
ZINC00582575

> <Number of Protein Chains in Target (bigger than 1 implies a multichain complex)>
1

> <BindingDB Target Chain Sequence>
MENFQKVEKIGEGTYGVVYKARNKLTGEVVALKKIRLDTETEGVPSTAIREISLLKELNHPNIVKLLDVIHTENKLYLVFEFLHQDLKKFMDASALTGIPLPLIKSYLFQLLQGLAFCHSHRVLHRDLKPQNLLINTEGAIKLADFGLARAFGVPVRTYTHEVVTLWYRAPEILLGCKYYSTAVDIWSLGCIFAEMVTRRALFPGDSEIDQLFRIFRTLGTPDEVVWPGVTSMPDYKPSFPKWARQDFSKVVPPLDEDGRSLLSQMLHYDPNKRISAKAALAHPFFQDVTKPVPHLRL

> <PDB ID(s) of Target Chain>
1CKP,1DI8,1DM2,1E1V,1E1X,1E9H,1F5Q,1FIN,1FQ1,1FVT,1FVV,1G5S,1GIH,1GY3,1GZ8,1H00,1H01,1H07,1H08,1H0V,1H0W,1H1P,1H1Q,1H1R,1H1S,1H24,1H25,1H26,1H27,1H28,1HCK,1HCL,1JST,1JSU,1JSV,1JVP,1KE5,1KE6,1KE7,1KE8,1KE9,1OGU,1OI9,1OIQ,1OIR,1OIU,1OIY,1OKV,1OKW,1OL1,1OL2,1P2A,1P5E,1PF8,1PKD,1PW2,1PXI,1PXJ,1PXK,1PXL,1PXM,1PXN,1PXO,1PXP,1PYE,1QMZ,1R78,1URC,1URW,1V1K,1VYW,1VYZ,1W0X,1W8C,1W98,1WCC,1Y8Y,1Y91,1YKR,2A0C,2A4L,2B52,2B53,2B54,2B55,2BHE,2BHH,2BKZ,2BPM,2BTR,2BTS,2C4G,2C5N,2C5O,2C5V,2C5X,2C5Y,2C68,2C69,2C6I,2C6K,2C6L,2C6M,2C6O,2C6T,2CCH,2CCI,2CJM,2CLX,2DUV,2EXM,2FVD,2G9X,2I40,2J9M,2JGZ,2R3F,2R3G,2R3H,2R3I,2R3J,2R3K,2R3L,2R3M,2R3N,2R3O,2R3P,2R3Q,2R3R,2R64,2UUE,2UZB,2UZD,2UZE,2UZL,2UZN,2UZO,2V0D,2V22,2VTA,2VTH,2VTI,2VTJ,2VTL,2VTM,2VTN,2VTO,2VTP,2VTQ,2VTR,2VTS,2VTT,2VU3,2VV9,2W05,2W06,2W17,2W1H,2WEV,2WFY,2WHB,2WIH,2WIP,2WMA,2WMB,2WPA,2WXV,2X1N,2XMY,2XNB,3BHT,3BHU,3BHV,3DDP,3DDQ,3DOG,3EID,3EJ1,3EOC,3EZR,3EZV,3F5X,3FZ1,3IG7,3IGG,3LE6,3LFN,3LFQ,3LFS,3MY5,3NS9,3PJ8,3PXF,3PXQ,3PXR,3PXY,3PXZ,3PY0,3PY1,3QHR,3QHW,3QL8,3QQF,3QQG,3QQH,3QQJ,3QQK,3QQL,3QRT,3QRU,3QTQ,3QTR,3QTS,3QTU,3QTW,3QTX,3QTZ,3QU0,3QWJ,3QWK,3QX2,3QX4,3QXO,3QXP,3QZF,3QZG,3QZH,3QZI,3R1Q,3R1S,3R1Y,3R28,3R6X,3R71,3R73,3R7E,3R7I,3R7U,3R7V,3R7Y,3R83,3R8L,3R8M,3R8P,3R8U,3R8V,3R8Z,3R9D,3R9H,3R9N,3R9O,3RAH,3RAI,3RAK,3RAL,3RJC,3RK5,3RK7,3RK9,3RKB,3RM6,3RM7,3RMF,3RNI,3ROY,3RPO,3RPR,3RPV,3RPY,3RZB,3S00,3S0O,3S1H,3S2P,3SQQ,3SW4,3SW7,3TI1,3TIY,3TIZ,3TNW,3ULI,3UNJ,3UNK,3WBL,4ACM,4BCK,4BCM,4BCN,4BCO,4BCP,4BCQ,4BGH,4BZD,4CFM,4CFN,4CFU,4CFV,4CFW,4CFX,4D1X,4D1Z,4EK3,4EK4,4EK5,4EK6,4EK8,4EOQ,4EOR,4EOS,4ERW,4EZ3,4EZ7,4FKG,4FKI,4FKJ,4FKL,4FKO,4FKP,4FKQ,4FKR,4FKS,4FKT,4FKU,4FKV,4FKW,4FX3,4GCJ,4I3Z,4II5,4KD1,4LYN,4NJ3,4RJ3,5A14,5AND,5ANE,5ANG,5ANI,5ANJ,5ANK,5ANO,5CYI,5D1J,5FP5,5FP6,5IEV,5IEX,5IEY,5IF1,5JQ5,5JQ8,5K4J,5L2W,5LMK,5MHQ,5NEV,5OO0,5OSJ,5UQ1,5UQ2,5UQ3,6ATH,6GUB,6GUC,6GUE,6GUF,6GUH,6GUK,6GVA,6INL,6JGM,6OQI,6P3W,6Q3B,6Q3C,6Q3F,6Q48,6Q49,6Q4A,6Q4B,6Q4C,6Q4D,6Q4E,6Q4F,6Q4H,6Q4J,6Q4K,6RIJ,6SG4,7ACK,7B5L,7B5R,7B7S,7E34,7KJS,7M2F,7NVQ

> <UniProt (SwissProt) Recommended Name of Target Chain>
Cyclin-dependent kinase 2

> <UniProt (SwissProt) Entry Name of Target Chain>
CDK2_HUMAN

> <UniProt (SwissProt) Primary ID of Target Chain>
P24941

> <UniProt (SwissProt) Secondary ID(s) of Target Chain>
A8K7C6,O75100

> <UniProt (SwissProt) Alternative ID(s) of Target Chain>


> <UniProt (TrEMBL) Submitted Name of Target Chain>


> <UniProt (TrEMBL) Entry Name of Target Chain>


> <UniProt (TrEMBL) Primary ID of Target Chain>
A0A024RB77

> <UniProt (TrEMBL) Secondary ID(s) of Target Chain>


> <UniProt (TrEMBL) Alternative ID(s) of Target Chain>


$$$$
BindingDB_50444921_mol_1

Vconf v2.0 Academic SN VC001-00000579
 62 65  0  0  0  0  0  0  0  0999 V2000
    6.5550   -7.8450    0.9010 C   0  0  0  0  0  0  0  0  0  0  0
    6.7800   -9.1840    0.5210 C   0  0  0  0  0  0  0  0  0  0  0
    7.9340   -9.8640    0.9400 C   0  0  0  0  0  0  0  0  0  0  0
    7.5170   -7.1960    1.7070 C   0  0  0  0  0  0  0  0  0  0  0
    8.6820   -7.8640    2.1500 C   0  0  0  0  0  0  0  0  0  0  0
    8.8810   -9.2090    1.7440 C   0  0  0  0  0  0  0  0  0  0  0
    9.9990   -9.8740    2.1220 N   0  0  0  0  0  0  0  0  0  0  0
   10.9760   -9.3270    2.8880 C   0  0  0  0  0  0  0  0  0  0  0
   10.8210   -7.9960    3.3230 C   0  0  0  0  0  0  0  0  0  0  0
    9.6740   -7.2580    2.9630 C   0  0  0  0  0  0  0  0  0  0  0
    5.4180   -7.2030    0.4420 C   0  0  0  0  0  0  0  0  0  0  0
    9.5620   -5.9670    3.4350 C   0  0  0  0  0  0  0  0  0  0  0
   10.4880   -5.1760    3.3380 O   0  0  0  0  0  0  0  0  0  0  0
    8.4680   -5.5620    4.0550 O   0  0  0  0  0  0  0  0  0  0  0
   12.1050  -10.1010    3.2210 C   0  0  0  0  0  0  0  0  0  0  0
   12.2010  -11.3650    2.7490 N   0  0  0  0  0  0  0  0  0  0  0
   13.0140   -9.6390    3.9490 O   0  0  0  0  0  0  0  0  0  0  0
   13.2800  -12.2550    3.0270 C   0  0  2  0  0  0  0  0  0  0  0
   13.8630  -12.6920    1.7470 C   0  0  0  0  0  0  0  0  0  0  0
   12.7630  -13.4710    3.8310 C   0  0  0  0  0  0  0  0  0  0  0
   12.1770  -13.0790    5.1310 C   0  0  0  0  0  0  0  0  0  0  0
   10.8020  -13.2610    5.3830 C   0  0  0  0  0  0  0  0  0  0  0
   10.2450  -12.8710    6.6130 C   0  0  0  0  0  0  0  0  0  0  0
   11.0590  -12.2970    7.6040 C   0  0  0  0  0  0  0  0  0  0  0
   12.4320  -12.1150    7.3630 C   0  0  0  0  0  0  0  0  0  0  0
   12.9880  -12.5060    6.1330 C   0  0  0  0  0  0  0  0  0  0  0
    4.7680   -6.2460    1.1250 C   0  0  0  0  0  0  0  0  0  0  0
   10.5170  -11.9220    8.7830 O   0  0  0  0  0  0  0  0  0  0  0
    3.6410   -5.5930    0.6590 C   0  0  0  0  0  0  0  0  0  0  0
    2.6800   -6.2280   -0.1600 C   0  0  0  0  0  0  0  0  0  0  0
    1.5450   -5.5300   -0.6080 C   0  0  0  0  0  0  0  0  0  0  0
    1.3500   -4.1870   -0.2380 C   0  0  0  0  0  0  0  0  0  0  0
    2.2950   -3.5480    0.5850 C   0  0  0  0  0  0  0  0  0  0  0
    3.4290   -4.2490    1.0310 C   0  0  0  0  0  0  0  0  0  0  0
   -0.0150   -3.3470   -0.7790 Cl  0  0  0  0  0  0  0  0  0  0  0
   15.1540  -12.4160    1.4660 N   0  0  0  0  0  0  0  0  0  0  0
   13.1530  -13.3130    0.9230 O   0  0  0  0  0  0  0  0  0  0  0
   15.7730  -12.8000    0.2490 C   0  0  0  0  0  0  0  0  0  0  0
    6.1020   -9.6730   -0.0660 H   0  0  0  0  0  0  0  0  0  0  0
    8.0850  -10.8320    0.6540 H   0  0  0  0  0  0  0  0  0  0  0
    7.3680   -6.2190    1.9620 H   0  0  0  0  0  0  0  0  0  0  0
   11.5420   -7.5640    3.9070 H   0  0  0  0  0  0  0  0  0  0  0
    5.0670   -7.4780   -0.4450 H   0  0  0  0  0  0  0  0  0  0  0
    8.5150   -4.6340    4.3650 H   0  0  0  0  0  0  0  0  0  0  0
   11.4780  -11.6910    2.1890 H   0  0  0  0  0  0  0  0  0  0  0
   14.0610  -11.7580    3.6080 H   0  0  0  0  0  0  0  0  0  0  0
   12.0180  -13.9980    3.2300 H   0  0  0  0  0  0  0  0  0  0  0
   13.5910  -14.1580    4.0160 H   0  0  0  0  0  0  0  0  0  0  0
   10.2010  -13.6720    4.6680 H   0  0  0  0  0  0  0  0  0  0  0
    9.2480  -13.0040    6.7850 H   0  0  0  0  0  0  0  0  0  0  0
   13.0270  -11.6990    8.0800 H   0  0  0  0  0  0  0  0  0  0  0
   13.9850  -12.3670    5.9650 H   0  0  0  0  0  0  0  0  0  0  0
    5.1190   -5.9710    2.0120 H   0  0  0  0  0  0  0  0  0  0  0
   11.1510  -11.5250    9.4160 H   0  0  0  0  0  0  0  0  0  0  0
    2.7980   -7.2040   -0.4320 H   0  0  0  0  0  0  0  0  0  0  0
    0.8660   -6.0090   -1.2020 H   0  0  0  0  0  0  0  0  0  0  0
    2.1670   -2.5740    0.8630 H   0  0  0  0  0  0  0  0  0  0  0
    4.1050   -3.7690    1.6280 H   0  0  0  0  0  0  0  0  0  0  0
   15.6770  -11.9290    2.1220 H   0  0  0  0  0  0  0  0  0  0  0
   16.8090  -12.4640    0.2520 H   0  0  0  0  0  0  0  0  0  0  0
   15.7500  -13.8860    0.1450 H   0  0  0  0  0  0  0  0  0  0  0
   15.2530  -12.3450   -0.5950 H   0  0  0  0  0  0  0  0  0  0  0
  1  2  2  0  0  0  0
  1  4  1  0  0  0  0
  1 11  1  0  0  0  0
  2  3  1  0  0  0  0
  2 39  1  0  0  0  0
  3  6  2  0  0  0  0
  3 40  1  0  0  0  0
  4  5  2  0  0  0  0
  4 41  1  0  0  0  0
  5  6  1  0  0  0  0
  5 10  1  0  0  0  0
  6  7  1  0  0  0  0
  7  8  2  0  0  0  0
  8  9  1  0  0  0  0
  8 15  1  0  0  0  0
  9 10  2  0  0  0  0
  9 42  1  0  0  0  0
 10 12  1  0  0  0  0
 11 27  2  0  0  0  0
 11 43  1  0  0  0  0
 12 13  2  0  0  0  0
 12 14  1  0  0  0  0
 14 44  1  0  0  0  0
 15 16  1  0  0  0  0
 15 17  2  0  0  0  0
 18 16  1  1  0  0  0
 16 45  1  0  0  0  0
 18 19  1  0  0  0  0
 18 20  1  0  0  0  0
 18 46  1  0  0  0  0
 19 36  1  0  0  0  0
 19 37  2  0  0  0  0
 20 21  1  0  0  0  0
 20 47  1  0  0  0  0
 20 48  1  0  0  0  0
 21 22  2  0  0  0  0
 21 26  1  0  0  0  0
 22 23  1  0  0  0  0
 22 49  1  0  0  0  0
 23 24  2  0  0  0  0
 23 50  1  0  0  0  0
 24 25  1  0  0  0  0
 24 28  1  0  0  0  0
 25 26  2  0  0  0  0
 25 51  1  0  0  0  0
 26 52  1  0  0  0  0
 27 29  1  0  0  0  0
 27 53  1  0  0  0  0
 28 54  1  0  0  0  0
 29 30  2  0  0  0  0
 29 34  1  0  0  0  0
 30 31  1  0  0  0  0
 30 55  1  0  0  0  0
 31 32  2  0  0  0  0
 31 56  1  0  0  0  0
 32 33  1  0  0  0  0
 32 35  1  0  0  0  0
 33 34  2  0  0  0  0
 33 57  1  0  0  0  0
 34 58  1  0  0  0  0
 36 38  1  0  0  0  0
 36 59  1  0  0  0  0
 38 60  1  0  0  0  0
 38 61  1  0  0  0  0
 38 62  1  0  0  0  0
M  END
> <From>
www.bindingDB.org

> <BindingDB Reactant_set_id>
50077178

> <Ligand InChI>
InChI=1S/C29H24ClN3O5/c1-31-27(35)25(15-19-6-11-21(34)12-7-19)33-28(36)26-16-23(29(37)38)22-14-18(8-13-24(22)32-26)3-2-17-4-9-20(30)10-5-17/h2-14,16,25,34H,15H2,1H3,(H,31,35)(H,33,36)(H,37,38)/b3-2+/t25-/m0/s1

> <Ligand InChI Key>
IYRLCOILNQBJEJ-ZNOKPGKASA-N

> <BindingDB MonomerID>
50444921

> <BindingDB Ligand Name>
CHEMBL3099750

> <Target Name Assigned by Curator or DataSource>
Cyclin-dependent kinase 2

> <Target Source Organism According to Curator or DataSource>
Homo sapiens

> <Ki (nM)>
 100

> <IC50 (nM)>


> <Kd (nM)>


> <EC50 (nM)>


> <kon (M-1-s-1)>


> <koff (s-1)>


> <pH>


> <Temp C>


> <Curation/DataSource>
ChEMBL

> <Article DOI>
10.1016/j.bmcl.2013.11.041

> <PMID>
24332088

> <PubChem AID>


> <Patent Number>


> <Authors>
Deng, Y; Shipps, GW; Zhao, L; Siddiqui, MA; Popovici-Muller, J; Curran, PJ; Duca, JS; Hruza, AW; Fischmann, TO; Madison, VS; Zhang, R; McNemar, CW; Mayhood, TW; Syto, R; Annis, A; Kirschmeier, P; Lees, EM; Parry, DA; Windsor, WT

> <Institution>
Merck Research Laboratories

> <Link to Ligand in BindingDB>
http://www.bindingdb.org/bind/chemsearch/marvin/MolStructure.jsp?monomerid=50444921

> <Link to Ligand-Target Pair in BindingDB>
http://www.bindingdb.org/jsp/dbsearch/PrimarySearch_ki.jsp?energyterm=kJ/mole&tag=pol&polymerid=796&target=Cyclin-dependent+kinase+2&column=ki&startPg=0&Increment=50&submit=Search

> <Link to Ligand-Target Pair in BindingDB>
http://www.bindingdb.org/jsp/dbsearch/PrimarySearch_ki.jsp?energyterm=kJ/mole&tag=r21&monomerid=50444921&enzyme=Cyclin-dependent+kinase+2&column=ki&startPg=0&Increment=50&submit=Search

> <Ligand HET ID in PDB>


> <PDB ID(s) for Ligand-Target Complex>


> <PubChem CID>
57602369

> <PubChem SID>
194942817

> <ChEBI ID of Ligand>


> <ChEMBL ID of Ligand>
CHEMBL3099750

> <DrugBank ID of Ligand>


> <IUPHAR_GRAC ID of Ligand>


> <KEGG ID of Ligand>


> <ZINC ID of Ligand>


> <Number of Protein Chains in Target (bigger than 1 implies a multichain complex)>
1

> <BindingDB Target Chain Sequence>
MENFQKVEKIGEGTYGVVYKARNKLTGEVVALKKIRLDTETEGVPSTAIREISLLKELNHPNIVKLLDVIHTENKLYLVFEFLHQDLKKFMDASALTGIPLPLIKSYLFQLLQGLAFCHSHRVLHRDLKPQNLLINTEGAIKLADFGLARAFGVPVRTYTHEVVTLWYRAPEILLGCKYYSTAVDIWSLGCIFAEMVTRRALFPGDSEIDQLFRIFRTLGTPDEVVWPGVTSMPDYKPSFPKWARQDFSKVVPPLDEDGRSLLSQMLHYDPNKRISAKAALAHPFFQDVTKPVPHLRL

> <PDB ID(s) of Target Chain>
1CKP,1DI8,1DM2,1E1V,1E1X,1E9H,1F5Q,1FIN,1FQ1,1FVT,1FVV,1G5S,1GIH,1GY3,1GZ8,1H00,1H01,1H07,1H08,1H0V,1H0W,1H1P,1H1Q,1H1R,1H1S,1H24,1H25,1H26,1H27,1H28,1HCK,1HCL,1JST,1JSU,1JSV,1JVP,1KE5,1KE6,1KE7,1KE8,1KE9,1OGU,1OI9,1OIQ,1OIR,1OIU,1OIY,1OKV,1OKW,1OL1,1OL2,1P2A,1P5E,1PF8,1PKD,1PW2,1PXI,1PXJ,1PXK,1PXL,1PXM,1PXN,1PXO,1PXP,1PYE,1QMZ,1R78,1URC,1URW,1V1K,1VYW,1VYZ,1W0X,1W8C,1W98,1WCC,1Y8Y,1Y91,1YKR,2A0C,2A4L,2B52,2B53,2B54,2B55,2BHE,2BHH,2BKZ,2BPM,2BTR,2BTS,2C4G,2C5N,2C5O,2C5V,2C5X,2C5Y,2C68,2C69,2C6I,2C6K,2C6L,2C6M,2C6O,2C6T,2CCH,2CCI,2CJM,2CLX,2DUV,2EXM,2FVD,2G9X,2I40,2J9M,2JGZ,2R3F,2R3G,2R3H,2R3I,2R3J,2R3K,2R3L,2R3M,2R3N,2R3O,2R3P,2R3Q,2R3R,2R64,2UUE,2UZB,2UZD,2UZE,2UZL,2UZN,2UZO,2V0D,2V22,2VTA,2VTH,2VTI,2VTJ,2VTL,2VTM,2VTN,2VTO,2VTP,2VTQ,2VTR,2VTS,2VTT,2VU3,2VV9,2W05,2W06,2W17,2W1H,2WEV,2WFY,2WHB,2WIH,2WIP,2WMA,2WMB,2WPA,2WXV,2X1N,2XMY,2XNB,3BHT,3BHU,3BHV,3DDP,3DDQ,3DOG,3EID,3EJ1,3EOC,3EZR,3EZV,3F5X,3FZ1,3IG7,3IGG,3LE6,3LFN,3LFQ,3LFS,3MY5,3NS9,3PJ8,3PXF,3PXQ,3PXR,3PXY,3PXZ,3PY0,3PY1,3QHR,3QHW,3QL8,3QQF,3QQG,3QQH,3QQJ,3QQK,3QQL,3QRT,3QRU,3QTQ,3QTR,3QTS,3QTU,3QTW,3QTX,3QTZ,3QU0,3QWJ,3QWK,3QX2,3QX4,3QXO,3QXP,3QZF,3QZG,3QZH,3QZI,3R1Q,3R1S,3R1Y,3R28,3R6X,3R71,3R73,3R7E,3R7I,3R7U,3R7V,3R7Y,3R83,3R8L,3R8M,3R8P,3R8U,3R8V,3R8Z,3R9D,3R9H,3R9N,3R9O,3RAH,3RAI,3RAK,3RAL,3RJC,3RK5,3RK7,3RK9,3RKB,3RM6,3RM7,3RMF,3RNI,3ROY,3RPO,3RPR,3RPV,3RPY,3RZB,3S00,3S0O,3S1H,3S2P,3SQQ,3SW4,3SW7,3TI1,3TIY,3TIZ,3TNW,3ULI,3UNJ,3UNK,3WBL,4ACM,4BCK,4BCM,4BCN,4BCO,4BCP,4BCQ,4BGH,4BZD,4CFM,4CFN,4CFU,4CFV,4CFW,4CFX,4D1X,4D1Z,4EK3,4EK4,4EK5,4EK6,4EK8,4EOQ,4EOR,4EOS,4ERW,4EZ3,4EZ7,4FKG,4FKI,4FKJ,4FKL,4FKO,4FKP,4FKQ,4FKR,4FKS,4FKT,4FKU,4FKV,4FKW,4FX3,4GCJ,4I3Z,4II5,4KD1,4LYN,4NJ3,4RJ3,5A14,5AND,5ANE,5ANG,5ANI,5ANJ,5ANK,5ANO,5CYI,5D1J,5FP5,5FP6,5IEV,5IEX,5IEY,5IF1,5JQ5,5JQ8,5K4J,5L2W,5LMK,5MHQ,5NEV,5OO0,5OSJ,5UQ1,5UQ2,5UQ3,6ATH,6GUB,6GUC,6GUE,6GUF,6GUH,6GUK,6GVA,6INL,6JGM,6OQI,6P3W,6Q3B,6Q3C,6Q3F,6Q48,6Q49,6Q4A,6Q4B,6Q4C,6Q4D,6Q4E,6Q4F,6Q4H,6Q4J,6Q4K,6RIJ,6SG4,7ACK,7B5L,7B5R,7B7S,7E34,7KJS,7M2F,7NVQ

> <UniProt (SwissProt) Recommended Name of Target Chain>
Cyclin-dependent kinase 2

> <UniProt (SwissProt) Entry Name of Target Chain>
CDK2_HUMAN

> <UniProt (SwissProt) Primary ID of Target Chain>
P24941

> <UniProt (SwissProt) Secondary ID(s) of Target Chain>
A8K7C6,O75100

> <UniProt (SwissProt) Alternative ID(s) of Target Chain>


> <UniProt (TrEMBL) Submitted Name of Target Chain>


> <UniProt (TrEMBL) Entry Name of Target Chain>


> <UniProt (TrEMBL) Primary ID of Target Chain>
A0A024RB77

> <UniProt (TrEMBL) Secondary ID(s) of Target Chain>


> <UniProt (TrEMBL) Alternative ID(s) of Target Chain>


$$$$
BindingDB_50444932_mol_1

Vconf v2.0 Academic SN VC001-00000579
 65 67  0  0  0  0  0  0  0  0999 V2000
   15.1920  -23.8150    0.3430 C   0  0  0  0  0  0  0  0  0  0  0
   15.7310  -24.8500   -0.4450 C   0  0  0  0  0  0  0  0  0  0  0
   16.8400  -25.5810    0.0050 C   0  0  0  0  0  0  0  0  0  0  0
   15.7770  -23.5230    1.5920 C   0  0  0  0  0  0  0  0  0  0  0
   16.9020  -24.2400    2.0610 C   0  0  0  0  0  0  0  0  0  0  0
   17.4220  -25.2810    1.2480 C   0  0  0  0  0  0  0  0  0  0  0
   18.4880  -26.0030    1.6690 N   0  0  0  0  0  0  0  0  0  0  0
   19.1150  -25.7970    2.8560 C   0  0  0  0  0  0  0  0  0  0  0
   18.6350  -24.7760    3.6980 C   0  0  0  0  0  0  0  0  0  0  0
   17.5330  -23.9860    3.3070 C   0  0  0  0  0  0  0  0  0  0  0
   14.0240  -23.0430   -0.1270 C   0  0  0  0  0  0  0  0  0  0  0
   17.1220  -22.9910    4.1700 C   0  0  0  0  0  0  0  0  0  0  0
   16.9330  -21.8490    3.7830 O   0  0  0  0  0  0  0  0  0  0  0
   16.9850  -23.2310    5.4620 O   0  0  0  0  0  0  0  0  0  0  0
   20.2150  -26.6050    3.2060 C   0  0  0  0  0  0  0  0  0  0  0
   20.6480  -27.5530    2.3430 N   0  0  0  0  0  0  0  0  0  0  0
   20.8060  -26.4540    4.3000 O   0  0  0  0  0  0  0  0  0  0  0
   21.7400  -28.4320    2.6010 C   0  0  2  0  0  0  0  0  0  0  0
   22.0980  -29.0990    1.3720 C   0  0  0  0  0  0  0  0  0  0  0
   21.3640  -29.4620    3.6960 C   0  0  0  0  0  0  0  0  0  0  0
   22.4720  -30.3810    4.0310 C   0  0  0  0  0  0  0  0  0  0  0
   23.3860  -29.1870    1.0460 O   0  0  0  0  0  0  0  0  0  0  0
   21.2370  -29.6760    0.7210 O   0  0  0  0  0  0  0  0  0  0  0
   23.7790  -29.9690   -0.0820 C   0  0  0  0  0  0  0  0  0  0  0
   22.3680  -31.7600    3.7560 C   0  0  0  0  0  0  0  0  0  0  0
   23.4260  -32.6300    4.0690 C   0  0  0  0  0  0  0  0  0  0  0
   24.5980  -32.1290    4.6610 C   0  0  0  0  0  0  0  0  0  0  0
   24.7080  -30.7560    4.9410 C   0  0  0  0  0  0  0  0  0  0  0
   23.6490  -29.8870    4.6280 C   0  0  0  0  0  0  0  0  0  0  0
   25.6130  -32.9700    4.9570 O   0  0  0  0  0  0  0  0  0  0  0
   14.3870  -21.5720   -0.4050 C   0  0  0  0  0  0  0  0  0  0  0
   13.1610  -20.8110   -0.9330 C   0  0  0  0  0  0  0  0  0  0  0
   12.3080  -18.5900   -1.7730 C   0  0  0  0  0  0  0  0  0  0  0
   13.5270  -19.3500   -1.2300 C   0  0  0  0  0  0  0  0  0  0  0
   12.6760  -17.1330   -2.0770 C   0  0  0  0  0  0  0  0  0  0  0
   15.3160  -25.0730   -1.3500 H   0  0  0  0  0  0  0  0  0  0  0
   17.2220  -26.3310   -0.5730 H   0  0  0  0  0  0  0  0  0  0  0
   15.3680  -22.7780    2.1580 H   0  0  0  0  0  0  0  0  0  0  0
   19.0920  -24.6010    4.5960 H   0  0  0  0  0  0  0  0  0  0  0
   13.6280  -23.4760   -1.0470 H   0  0  0  0  0  0  0  0  0  0  0
   13.2400  -23.0820    0.6310 H   0  0  0  0  0  0  0  0  0  0  0
   16.7150  -22.4460    5.9800 H   0  0  0  0  0  0  0  0  0  0  0
   20.1920  -27.6290    1.4890 H   0  0  0  0  0  0  0  0  0  0  0
   22.5950  -27.8390    2.9320 H   0  0  0  0  0  0  0  0  0  0  0
   21.0750  -28.9330    4.6050 H   0  0  0  0  0  0  0  0  0  0  0
   20.4940  -30.0260    3.3500 H   0  0  0  0  0  0  0  0  0  0  0
   24.8610  -29.9150   -0.1940 H   0  0  0  0  0  0  0  0  0  0  0
   23.4860  -31.0090    0.0670 H   0  0  0  0  0  0  0  0  0  0  0
   23.3060  -29.5840   -0.9870 H   0  0  0  0  0  0  0  0  0  0  0
   21.5220  -32.1330    3.3230 H   0  0  0  0  0  0  0  0  0  0  0
   23.3440  -33.6260    3.8640 H   0  0  0  0  0  0  0  0  0  0  0
   25.5570  -30.3880    5.3730 H   0  0  0  0  0  0  0  0  0  0  0
   23.7380  -28.8910    4.8340 H   0  0  0  0  0  0  0  0  0  0  0
   26.3920  -32.5410    5.3670 H   0  0  0  0  0  0  0  0  0  0  0
   14.7320  -21.0930    0.5120 H   0  0  0  0  0  0  0  0  0  0  0
   15.1810  -21.5280   -1.1530 H   0  0  0  0  0  0  0  0  0  0  0
   12.8070  -21.2880   -1.8480 H   0  0  0  0  0  0  0  0  0  0  0
   12.3680  -20.8400   -0.1840 H   0  0  0  0  0  0  0  0  0  0  0
   11.9600  -19.0690   -2.6900 H   0  0  0  0  0  0  0  0  0  0  0
   11.5070  -18.6100   -1.0330 H   0  0  0  0  0  0  0  0  0  0  0
   13.8720  -18.8710   -0.3130 H   0  0  0  0  0  0  0  0  0  0  0
   14.3280  -19.3230   -1.9710 H   0  0  0  0  0  0  0  0  0  0  0
   11.7990  -16.6100   -2.4610 H   0  0  0  0  0  0  0  0  0  0  0
   13.0180  -16.6410   -1.1660 H   0  0  0  0  0  0  0  0  0  0  0
   13.4690  -17.1010   -2.8250 H   0  0  0  0  0  0  0  0  0  0  0
  1  2  2  0  0  0  0
  1  4  1  0  0  0  0
  1 11  1  0  0  0  0
  2  3  1  0  0  0  0
  2 36  1  0  0  0  0
  3  6  2  0  0  0  0
  3 37  1  0  0  0  0
  4  5  2  0  0  0  0
  4 38  1  0  0  0  0
  5  6  1  0  0  0  0
  5 10  1  0  0  0  0
  6  7  1  0  0  0  0
  7  8  2  0  0  0  0
  8  9  1  0  0  0  0
  8 15  1  0  0  0  0
  9 10  2  0  0  0  0
  9 39  1  0  0  0  0
 10 12  1  0  0  0  0
 11 31  1  0  0  0  0
 11 40  1  0  0  0  0
 11 41  1  0  0  0  0
 12 13  2  0  0  0  0
 12 14  1  0  0  0  0
 14 42  1  0  0  0  0
 15 16  1  0  0  0  0
 15 17  2  0  0  0  0
 18 16  1  1  0  0  0
 16 43  1  0  0  0  0
 18 19  1  0  0  0  0
 18 20  1  0  0  0  0
 18 44  1  0  0  0  0
 19 22  1  0  0  0  0
 19 23  2  0  0  0  0
 20 21  1  0  0  0  0
 20 45  1  0  0  0  0
 20 46  1  0  0  0  0
 21 25  2  0  0  0  0
 21 29  1  0  0  0  0
 22 24  1  0  0  0  0
 24 47  1  0  0  0  0
 24 48  1  0  0  0  0
 24 49  1  0  0  0  0
 25 26  1  0  0  0  0
 25 50  1  0  0  0  0
 26 27  2  0  0  0  0
 26 51  1  0  0  0  0
 27 28  1  0  0  0  0
 27 30  1  0  0  0  0
 28 29  2  0  0  0  0
 28 52  1  0  0  0  0
 29 53  1  0  0  0  0
 30 54  1  0  0  0  0
 31 32  1  0  0  0  0
 31 55  1  0  0  0  0
 31 56  1  0  0  0  0
 32 34  1  0  0  0  0
 32 57  1  0  0  0  0
 32 58  1  0  0  0  0
 33 34  1  0  0  0  0
 33 35  1  0  0  0  0
 33 59  1  0  0  0  0
 33 60  1  0  0  0  0
 34 61  1  0  0  0  0
 34 62  1  0  0  0  0
 35 63  1  0  0  0  0
 35 64  1  0  0  0  0
 35 65  1  0  0  0  0
M  END
> <From>
www.bindingDB.org

> <BindingDB Reactant_set_id>
50077187

> <Ligand InChI>
InChI=1S/C27H30N2O6/c1-3-4-5-6-7-17-10-13-22-20(14-17)21(26(32)33)16-23(28-22)25(31)29-24(27(34)35-2)15-18-8-11-19(30)12-9-18/h8-14,16,24,30H,3-7,15H2,1-2H3,(H,29,31)(H,32,33)/t24-/m0/s1

> <Ligand InChI Key>
GPOOLZDIKMXUPQ-DEOSSOPVSA-N

> <BindingDB MonomerID>
50444932

> <BindingDB Ligand Name>
CHEMBL3099764

> <Target Name Assigned by Curator or DataSource>
Cyclin-dependent kinase 2

> <Target Source Organism According to Curator or DataSource>
Homo sapiens

> <Ki (nM)>
<100

> <IC50 (nM)>


> <Kd (nM)>


> <EC50 (nM)>


> <kon (M-1-s-1)>


> <koff (s-1)>


> <pH>


> <Temp C>


> <Curation/DataSource>
ChEMBL

> <Article DOI>
10.1016/j.bmcl.2013.11.041

> <PMID>
24332088

> <PubChem AID>


> <Patent Number>


> <Authors>
Deng, Y; Shipps, GW; Zhao, L; Siddiqui, MA; Popovici-Muller, J; Curran, PJ; Duca, JS; Hruza, AW; Fischmann, TO; Madison, VS; Zhang, R; McNemar, CW; Mayhood, TW; Syto, R; Annis, A; Kirschmeier, P; Lees, EM; Parry, DA; Windsor, WT

> <Institution>
Merck Research Laboratories

> <Link to Ligand in BindingDB>
http://www.bindingdb.org/bind/chemsearch/marvin/MolStructure.jsp?monomerid=50444932

> <Link to Ligand-Target Pair in BindingDB>
http://www.bindingdb.org/jsp/dbsearch/PrimarySearch_ki.jsp?energyterm=kJ/mole&tag=pol&polymerid=796&target=Cyclin-dependent+kinase+2&column=ki&startPg=0&Increment=50&submit=Search

> <Link to Ligand-Target Pair in BindingDB>
http://www.bindingdb.org/jsp/dbsearch/PrimarySearch_ki.jsp?energyterm=kJ/mole&tag=r21&monomerid=50444932&enzyme=Cyclin-dependent+kinase+2&column=ki&startPg=0&Increment=50&submit=Search

> <Ligand HET ID in PDB>


> <PDB ID(s) for Ligand-Target Complex>


> <PubChem CID>
16050816

> <PubChem SID>
194942828

> <ChEBI ID of Ligand>


> <ChEMBL ID of Ligand>
CHEMBL3099764

> <DrugBank ID of Ligand>


> <IUPHAR_GRAC ID of Ligand>


> <KEGG ID of Ligand>


> <ZINC ID of Ligand>


> <Number of Protein Chains in Target (bigger than 1 implies a multichain complex)>
1

> <BindingDB Target Chain Sequence>
MENFQKVEKIGEGTYGVVYKARNKLTGEVVALKKIRLDTETEGVPSTAIREISLLKELNHPNIVKLLDVIHTENKLYLVFEFLHQDLKKFMDASALTGIPLPLIKSYLFQLLQGLAFCHSHRVLHRDLKPQNLLINTEGAIKLADFGLARAFGVPVRTYTHEVVTLWYRAPEILLGCKYYSTAVDIWSLGCIFAEMVTRRALFPGDSEIDQLFRIFRTLGTPDEVVWPGVTSMPDYKPSFPKWARQDFSKVVPPLDEDGRSLLSQMLHYDPNKRISAKAALAHPFFQDVTKPVPHLRL

> <PDB ID(s) of Target Chain>
1CKP,1DI8,1DM2,1E1V,1E1X,1E9H,1F5Q,1FIN,1FQ1,1FVT,1FVV,1G5S,1GIH,1GY3,1GZ8,1H00,1H01,1H07,1H08,1H0V,1H0W,1H1P,1H1Q,1H1R,1H1S,1H24,1H25,1H26,1H27,1H28,1HCK,1HCL,1JST,1JSU,1JSV,1JVP,1KE5,1KE6,1KE7,1KE8,1KE9,1OGU,1OI9,1OIQ,1OIR,1OIU,1OIY,1OKV,1OKW,1OL1,1OL2,1P2A,1P5E,1PF8,1PKD,1PW2,1PXI,1PXJ,1PXK,1PXL,1PXM,1PXN,1PXO,1PXP,1PYE,1QMZ,1R78,1URC,1URW,1V1K,1VYW,1VYZ,1W0X,1W8C,1W98,1WCC,1Y8Y,1Y91,1YKR,2A0C,2A4L,2B52,2B53,2B54,2B55,2BHE,2BHH,2BKZ,2BPM,2BTR,2BTS,2C4G,2C5N,2C5O,2C5V,2C5X,2C5Y,2C68,2C69,2C6I,2C6K,2C6L,2C6M,2C6O,2C6T,2CCH,2CCI,2CJM,2CLX,2DUV,2EXM,2FVD,2G9X,2I40,2J9M,2JGZ,2R3F,2R3G,2R3H,2R3I,2R3J,2R3K,2R3L,2R3M,2R3N,2R3O,2R3P,2R3Q,2R3R,2R64,2UUE,2UZB,2UZD,2UZE,2UZL,2UZN,2UZO,2V0D,2V22,2VTA,2VTH,2VTI,2VTJ,2VTL,2VTM,2VTN,2VTO,2VTP,2VTQ,2VTR,2VTS,2VTT,2VU3,2VV9,2W05,2W06,2W17,2W1H,2WEV,2WFY,2WHB,2WIH,2WIP,2WMA,2WMB,2WPA,2WXV,2X1N,2XMY,2XNB,3BHT,3BHU,3BHV,3DDP,3DDQ,3DOG,3EID,3EJ1,3EOC,3EZR,3EZV,3F5X,3FZ1,3IG7,3IGG,3LE6,3LFN,3LFQ,3LFS,3MY5,3NS9,3PJ8,3PXF,3PXQ,3PXR,3PXY,3PXZ,3PY0,3PY1,3QHR,3QHW,3QL8,3QQF,3QQG,3QQH,3QQJ,3QQK,3QQL,3QRT,3QRU,3QTQ,3QTR,3QTS,3QTU,3QTW,3QTX,3QTZ,3QU0,3QWJ,3QWK,3QX2,3QX4,3QXO,3QXP,3QZF,3QZG,3QZH,3QZI,3R1Q,3R1S,3R1Y,3R28,3R6X,3R71,3R73,3R7E,3R7I,3R7U,3R7V,3R7Y,3R83,3R8L,3R8M,3R8P,3R8U,3R8V,3R8Z,3R9D,3R9H,3R9N,3R9O,3RAH,3RAI,3RAK,3RAL,3RJC,3RK5,3RK7,3RK9,3RKB,3RM6,3RM7,3RMF,3RNI,3ROY,3RPO,3RPR,3RPV,3RPY,3RZB,3S00,3S0O,3S1H,3S2P,3SQQ,3SW4,3SW7,3TI1,3TIY,3TIZ,3TNW,3ULI,3UNJ,3UNK,3WBL,4ACM,4BCK,4BCM,4BCN,4BCO,4BCP,4BCQ,4BGH,4BZD,4CFM,4CFN,4CFU,4CFV,4CFW,4CFX,4D1X,4D1Z,4EK3,4EK4,4EK5,4EK6,4EK8,4EOQ,4EOR,4EOS,4ERW,4EZ3,4EZ7,4FKG,4FKI,4FKJ,4FKL,4FKO,4FKP,4FKQ,4FKR,4FKS,4FKT,4FKU,4FKV,4FKW,4FX3,4GCJ,4I3Z,4II5,4KD1,4LYN,4NJ3,4RJ3,5A14,5AND,5ANE,5ANG,5ANI,5ANJ,5ANK,5ANO,5CYI,5D1J,5FP5,5FP6,5IEV,5IEX,5IEY,5IF1,5JQ5,5JQ8,5K4J,5L2W,5LMK,5MHQ,5NEV,5OO0,5OSJ,5UQ1,5UQ2,5UQ3,6ATH,6GUB,6GUC,6GUE,6GUF,6GUH,6GUK,6GVA,6INL,6JGM,6OQI,6P3W,6Q3B,6Q3C,6Q3F,6Q48,6Q49,6Q4A,6Q4B,6Q4C,6Q4D,6Q4E,6Q4F,6Q4H,6Q4J,6Q4K,6RIJ,6SG4,7ACK,7B5L,7B5R,7B7S,7E34,7KJS,7M2F,7NVQ

> <UniProt (SwissProt) Recommended Name of Target Chain>
Cyclin-dependent kinase 2

> <UniProt (SwissProt) Entry Name of Target Chain>
CDK2_HUMAN

> <UniProt (SwissProt) Primary ID of Target Chain>
P24941

> <UniProt (SwissProt) Secondary ID(s) of Target Chain>
A8K7C6,O75100

> <UniProt (SwissProt) Alternative ID(s) of Target Chain>


> <UniProt (TrEMBL) Submitted Name of Target Chain>


> <UniProt (TrEMBL) Entry Name of Target Chain>


> <UniProt (TrEMBL) Primary ID of Target Chain>
A0A024RB77

> <UniProt (TrEMBL) Secondary ID(s) of Target Chain>


> <UniProt (TrEMBL) Alternative ID(s) of Target Chain>


$$$$
BindingDB_50444933_mol_1

Vconf v2.0 Academic SN VC001-00000579
 61 64  0  0  0  0  0  0  0  0999 V2000
    4.9550  -23.5660    0.6470 C   0  0  0  0  0  0  0  0  0  0  0
    5.2970  -24.7700   -0.0020 C   0  0  0  0  0  0  0  0  0  0  0
    6.3940  -25.5300    0.4310 C   0  0  0  0  0  0  0  0  0  0  0
    5.7230  -23.1470    1.7560 C   0  0  0  0  0  0  0  0  0  0  0
    6.8270  -23.9030    2.2160 C   0  0  0  0  0  0  0  0  0  0  0
    7.1570  -25.0990    1.5280 C   0  0  0  0  0  0  0  0  0  0  0
    8.2200  -25.8390    1.9250 N   0  0  0  0  0  0  0  0  0  0  0
    9.0190  -25.5080    2.9710 C   0  0  0  0  0  0  0  0  0  0  0
    8.7300  -24.3330    3.6900 C   0  0  0  0  0  0  0  0  0  0  0
    7.6330  -23.5250    3.3220 C   0  0  0  0  0  0  0  0  0  0  0
    3.8640  -22.8470    0.1890 C   0  0  0  0  0  0  0  0  0  0  0
    7.3860  -22.3940    4.0700 C   0  0  0  0  0  0  0  0  0  0  0
    8.2780  -21.6000    4.3280 O   0  0  0  0  0  0  0  0  0  0  0
    6.1900  -22.1610    4.5790 O   0  0  0  0  0  0  0  0  0  0  0
   10.1010  -26.3460    3.3020 C   0  0  0  0  0  0  0  0  0  0  0
   10.3990  -27.3910    2.4970 N   0  0  0  0  0  0  0  0  0  0  0
   10.7890  -26.1440    4.3300 O   0  0  0  0  0  0  0  0  0  0  0
   11.4560  -28.3180    2.7380 C   0  0  2  0  0  0  0  0  0  0  0
   12.7480  -27.6800    2.6390 C   0  0  0  0  0  0  0  0  0  0  0
   11.3750  -29.4660    1.7060 C   0  0  0  0  0  0  0  0  0  0  0
   10.0960  -30.2040    1.7720 C   0  0  0  0  0  0  0  0  0  0  0
   13.0730  -27.0440    1.5150 O   0  0  0  0  0  0  0  0  0  0  0
   13.5220  -27.7400    3.5840 O   0  0  0  0  0  0  0  0  0  0  0
   14.3260  -26.3650    1.4260 C   0  0  0  0  0  0  0  0  0  0  0
    9.1850  -30.1610    0.6960 C   0  0  0  0  0  0  0  0  0  0  0
    7.9660  -30.8580    0.7660 C   0  0  0  0  0  0  0  0  0  0  0
    7.6490  -31.6070    1.9120 C   0  0  0  0  0  0  0  0  0  0  0
    8.5530  -31.6590    2.9870 C   0  0  0  0  0  0  0  0  0  0  0
    9.7700  -30.9600    2.9170 C   0  0  0  0  0  0  0  0  0  0  0
    6.4760  -32.2750    1.9720 O   0  0  0  0  0  0  0  0  0  0  0
    3.7850  -21.5070    0.2150 C   0  0  0  0  0  0  0  0  0  0  0
    2.7040  -20.7860   -0.2590 C   0  0  0  0  0  0  0  0  0  0  0
    2.9240  -19.5090   -0.8180 C   0  0  0  0  0  0  0  0  0  0  0
    1.8510  -18.7400   -1.3010 C   0  0  0  0  0  0  0  0  0  0  0
    0.5370  -19.2370   -1.2280 C   0  0  0  0  0  0  0  0  0  0  0
    0.3040  -20.5060   -0.6670 C   0  0  0  0  0  0  0  0  0  0  0
    1.3790  -21.2720   -0.1840 C   0  0  0  0  0  0  0  0  0  0  0
   -0.7550  -18.3120   -1.8080 Cl  0  0  0  0  0  0  0  0  0  0  0
    4.7510  -25.0960   -0.8010 H   0  0  0  0  0  0  0  0  0  0  0
    6.6360  -26.3950   -0.0540 H   0  0  0  0  0  0  0  0  0  0  0
    5.4690  -22.2820    2.2340 H   0  0  0  0  0  0  0  0  0  0  0
    9.3150  -24.0640    4.4840 H   0  0  0  0  0  0  0  0  0  0  0
    3.1120  -23.3610   -0.2070 H   0  0  0  0  0  0  0  0  0  0  0
    6.1460  -21.3440    5.1150 H   0  0  0  0  0  0  0  0  0  0  0
    9.8390  -27.5280    1.7170 H   0  0  0  0  0  0  0  0  0  0  0
   11.3430  -28.7370    3.7410 H   0  0  0  0  0  0  0  0  0  0  0
   11.5140  -29.0450    0.7070 H   0  0  0  0  0  0  0  0  0  0  0
   12.1910  -30.1690    1.8880 H   0  0  0  0  0  0  0  0  0  0  0
   14.4130  -25.9030    0.4430 H   0  0  0  0  0  0  0  0  0  0  0
   14.3850  -25.5900    2.1920 H   0  0  0  0  0  0  0  0  0  0  0
   15.1450  -27.0730    1.5620 H   0  0  0  0  0  0  0  0  0  0  0
    9.4050  -29.6190   -0.1400 H   0  0  0  0  0  0  0  0  0  0  0
    7.3110  -30.8190   -0.0150 H   0  0  0  0  0  0  0  0  0  0  0
    8.3270  -32.2030    3.8200 H   0  0  0  0  0  0  0  0  0  0  0
   10.4210  -31.0030    3.7020 H   0  0  0  0  0  0  0  0  0  0  0
    6.3300  -32.7710    2.8050 H   0  0  0  0  0  0  0  0  0  0  0
    4.5570  -20.9910    0.5690 H   0  0  0  0  0  0  0  0  0  0  0
    3.8710  -19.1320   -0.8780 H   0  0  0  0  0  0  0  0  0  0  0
    2.0360  -17.8200   -1.7040 H   0  0  0  0  0  0  0  0  0  0  0
   -0.6450  -20.8780   -0.6030 H   0  0  0  0  0  0  0  0  0  0  0
    1.1870  -22.1850    0.2290 H   0  0  0  0  0  0  0  0  0  0  0
  1  2  2  0  0  0  0
  1  4  1  0  0  0  0
  1 11  1  0  0  0  0
  2  3  1  0  0  0  0
  2 39  1  0  0  0  0
  3  6  2  0  0  0  0
  3 40  1  0  0  0  0
  4  5  2  0  0  0  0
  4 41  1  0  0  0  0
  5  6  1  0  0  0  0
  5 10  1  0  0  0  0
  6  7  1  0  0  0  0
  7  8  2  0  0  0  0
  8  9  1  0  0  0  0
  8 15  1  0  0  0  0
  9 10  2  0  0  0  0
  9 42  1  0  0  0  0
 10 12  1  0  0  0  0
 11 31  2  0  0  0  0
 11 43  1  0  0  0  0
 12 13  2  0  0  0  0
 12 14  1  0  0  0  0
 14 44  1  0  0  0  0
 15 16  1  0  0  0  0
 15 17  2  0  0  0  0
 18 16  1  1  0  0  0
 16 45  1  0  0  0  0
 18 19  1  0  0  0  0
 18 20  1  0  0  0  0
 18 46  1  0  0  0  0
 19 22  1  0  0  0  0
 19 23  2  0  0  0  0
 20 21  1  0  0  0  0
 20 47  1  0  0  0  0
 20 48  1  0  0  0  0
 21 25  2  0  0  0  0
 21 29  1  0  0  0  0
 22 24  1  0  0  0  0
 24 49  1  0  0  0  0
 24 50  1  0  0  0  0
 24 51  1  0  0  0  0
 25 26  1  0  0  0  0
 25 52  1  0  0  0  0
 26 27  2  0  0  0  0
 26 53  1  0  0  0  0
 27 28  1  0  0  0  0
 27 30  1  0  0  0  0
 28 29  2  0  0  0  0
 28 54  1  0  0  0  0
 29 55  1  0  0  0  0
 30 56  1  0  0  0  0
 31 32  1  0  0  0  0
 31 57  1  0  0  0  0
 32 33  2  0  0  0  0
 32 37  1  0  0  0  0
 33 34  1  0  0  0  0
 33 58  1  0  0  0  0
 34 35  2  0  0  0  0
 34 59  1  0  0  0  0
 35 36  1  0  0  0  0
 35 38  1  0  0  0  0
 36 37  2  0  0  0  0
 36 60  1  0  0  0  0
 37 61  1  0  0  0  0
M  END
> <From>
www.bindingDB.org

> <BindingDB Reactant_set_id>
50077185

> <Ligand InChI>
InChI=1S/C29H23ClN2O6/c1-38-29(37)26(15-19-6-11-21(33)12-7-19)32-27(34)25-16-23(28(35)36)22-14-18(8-13-24(22)31-25)3-2-17-4-9-20(30)10-5-17/h2-14,16,26,33H,15H2,1H3,(H,32,34)(H,35,36)/b3-2+/t26-/m0/s1

> <Ligand InChI Key>
CRHBWGFUPXDNDU-HPHQOREJSA-N

> <BindingDB MonomerID>
50444933

> <BindingDB Ligand Name>
CHEMBL3099763

> <Target Name Assigned by Curator or DataSource>
Cyclin-dependent kinase 2

> <Target Source Organism According to Curator or DataSource>
Homo sapiens

> <Ki (nM)>
<100

> <IC50 (nM)>


> <Kd (nM)>


> <EC50 (nM)>


> <kon (M-1-s-1)>


> <koff (s-1)>


> <pH>


> <Temp C>


> <Curation/DataSource>
ChEMBL

> <Article DOI>
10.1016/j.bmcl.2013.11.041

> <PMID>
24332088

> <PubChem AID>


> <Patent Number>


> <Authors>
Deng, Y; Shipps, GW; Zhao, L; Siddiqui, MA; Popovici-Muller, J; Curran, PJ; Duca, JS; Hruza, AW; Fischmann, TO; Madison, VS; Zhang, R; McNemar, CW; Mayhood, TW; Syto, R; Annis, A; Kirschmeier, P; Lees, EM; Parry, DA; Windsor, WT

> <Institution>
Merck Research Laboratories

> <Link to Ligand in BindingDB>
http://www.bindingdb.org/bind/chemsearch/marvin/MolStructure.jsp?monomerid=50444933

> <Link to Ligand-Target Pair in BindingDB>
http://www.bindingdb.org/jsp/dbsearch/PrimarySearch_ki.jsp?energyterm=kJ/mole&tag=pol&polymerid=796&target=Cyclin-dependent+kinase+2&column=ki&startPg=0&Increment=50&submit=Search

> <Link to Ligand-Target Pair in BindingDB>
http://www.bindingdb.org/jsp/dbsearch/PrimarySearch_ki.jsp?energyterm=kJ/mole&tag=r21&monomerid=50444933&enzyme=Cyclin-dependent+kinase+2&column=ki&startPg=0&Increment=50&submit=Search

> <Ligand HET ID in PDB>


> <PDB ID(s) for Ligand-Target Complex>


> <PubChem CID>
16050623

> <PubChem SID>
194942829

> <ChEBI ID of Ligand>


> <ChEMBL ID of Ligand>
CHEMBL3099763

> <DrugBank ID of Ligand>


> <IUPHAR_GRAC ID of Ligand>


> <KEGG ID of Ligand>


> <ZINC ID of Ligand>


> <Number of Protein Chains in Target (bigger than 1 implies a multichain complex)>
1

> <BindingDB Target Chain Sequence>
MENFQKVEKIGEGTYGVVYKARNKLTGEVVALKKIRLDTETEGVPSTAIREISLLKELNHPNIVKLLDVIHTENKLYLVFEFLHQDLKKFMDASALTGIPLPLIKSYLFQLLQGLAFCHSHRVLHRDLKPQNLLINTEGAIKLADFGLARAFGVPVRTYTHEVVTLWYRAPEILLGCKYYSTAVDIWSLGCIFAEMVTRRALFPGDSEIDQLFRIFRTLGTPDEVVWPGVTSMPDYKPSFPKWARQDFSKVVPPLDEDGRSLLSQMLHYDPNKRISAKAALAHPFFQDVTKPVPHLRL

> <PDB ID(s) of Target Chain>
1CKP,1DI8,1DM2,1E1V,1E1X,1E9H,1F5Q,1FIN,1FQ1,1FVT,1FVV,1G5S,1GIH,1GY3,1GZ8,1H00,1H01,1H07,1H08,1H0V,1H0W,1H1P,1H1Q,1H1R,1H1S,1H24,1H25,1H26,1H27,1H28,1HCK,1HCL,1JST,1JSU,1JSV,1JVP,1KE5,1KE6,1KE7,1KE8,1KE9,1OGU,1OI9,1OIQ,1OIR,1OIU,1OIY,1OKV,1OKW,1OL1,1OL2,1P2A,1P5E,1PF8,1PKD,1PW2,1PXI,1PXJ,1PXK,1PXL,1PXM,1PXN,1PXO,1PXP,1PYE,1QMZ,1R78,1URC,1URW,1V1K,1VYW,1VYZ,1W0X,1W8C,1W98,1WCC,1Y8Y,1Y91,1YKR,2A0C,2A4L,2B52,2B53,2B54,2B55,2BHE,2BHH,2BKZ,2BPM,2BTR,2BTS,2C4G,2C5N,2C5O,2C5V,2C5X,2C5Y,2C68,2C69,2C6I,2C6K,2C6L,2C6M,2C6O,2C6T,2CCH,2CCI,2CJM,2CLX,2DUV,2EXM,2FVD,2G9X,2I40,2J9M,2JGZ,2R3F,2R3G,2R3H,2R3I,2R3J,2R3K,2R3L,2R3M,2R3N,2R3O,2R3P,2R3Q,2R3R,2R64,2UUE,2UZB,2UZD,2UZE,2UZL,2UZN,2UZO,2V0D,2V22,2VTA,2VTH,2VTI,2VTJ,2VTL,2VTM,2VTN,2VTO,2VTP,2VTQ,2VTR,2VTS,2VTT,2VU3,2VV9,2W05,2W06,2W17,2W1H,2WEV,2WFY,2WHB,2WIH,2WIP,2WMA,2WMB,2WPA,2WXV,2X1N,2XMY,2XNB,3BHT,3BHU,3BHV,3DDP,3DDQ,3DOG,3EID,3EJ1,3EOC,3EZR,3EZV,3F5X,3FZ1,3IG7,3IGG,3LE6,3LFN,3LFQ,3LFS,3MY5,3NS9,3PJ8,3PXF,3PXQ,3PXR,3PXY,3PXZ,3PY0,3PY1,3QHR,3QHW,3QL8,3QQF,3QQG,3QQH,3QQJ,3QQK,3QQL,3QRT,3QRU,3QTQ,3QTR,3QTS,3QTU,3QTW,3QTX,3QTZ,3QU0,3QWJ,3QWK,3QX2,3QX4,3QXO,3QXP,3QZF,3QZG,3QZH,3QZI,3R1Q,3R1S,3R1Y,3R28,3R6X,3R71,3R73,3R7E,3R7I,3R7U,3R7V,3R7Y,3R83,3R8L,3R8M,3R8P,3R8U,3R8V,3R8Z,3R9D,3R9H,3R9N,3R9O,3RAH,3RAI,3RAK,3RAL,3RJC,3RK5,3RK7,3RK9,3RKB,3RM6,3RM7,3RMF,3RNI,3ROY,3RPO,3RPR,3RPV,3RPY,3RZB,3S00,3S0O,3S1H,3S2P,3SQQ,3SW4,3SW7,3TI1,3TIY,3TIZ,3TNW,3ULI,3UNJ,3UNK,3WBL,4ACM,4BCK,4BCM,4BCN,4BCO,4BCP,4BCQ,4BGH,4BZD,4CFM,4CFN,4CFU,4CFV,4CFW,4CFX,4D1X,4D1Z,4EK3,4EK4,4EK5,4EK6,4EK8,4EOQ,4EOR,4EOS,4ERW,4EZ3,4EZ7,4FKG,4FKI,4FKJ,4FKL,4FKO,4FKP,4FKQ,4FKR,4FKS,4FKT,4FKU,4FKV,4FKW,4FX3,4GCJ,4I3Z,4II5,4KD1,4LYN,4NJ3,4RJ3,5A14,5AND,5ANE,5ANG,5ANI,5ANJ,5ANK,5ANO,5CYI,5D1J,5FP5,5FP6,5IEV,5IEX,5IEY,5IF1,5JQ5,5JQ8,5K4J,5L2W,5LMK,5MHQ,5NEV,5OO0,5OSJ,5UQ1,5UQ2,5UQ3,6ATH,6GUB,6GUC,6GUE,6GUF,6GUH,6GUK,6GVA,6INL,6JGM,6OQI,6P3W,6Q3B,6Q3C,6Q3F,6Q48,6Q49,6Q4A,6Q4B,6Q4C,6Q4D,6Q4E,6Q4F,6Q4H,6Q4J,6Q4K,6RIJ,6SG4,7ACK,7B5L,7B5R,7B7S,7E34,7KJS,7M2F,7NVQ

> <UniProt (SwissProt) Recommended Name of Target Chain>
Cyclin-dependent kinase 2

> <UniProt (SwissProt) Entry Name of Target Chain>
CDK2_HUMAN

> <UniProt (SwissProt) Primary ID of Target Chain>
P24941

> <UniProt (SwissProt) Secondary ID(s) of Target Chain>
A8K7C6,O75100

> <UniProt (SwissProt) Alternative ID(s) of Target Chain>


> <UniProt (TrEMBL) Submitted Name of Target Chain>


> <UniProt (TrEMBL) Entry Name of Target Chain>


> <UniProt (TrEMBL) Primary ID of Target Chain>
A0A024RB77

> <UniProt (TrEMBL) Secondary ID(s) of Target Chain>


> <UniProt (TrEMBL) Alternative ID(s) of Target Chain>


$$$$
BindingDB_50249356_mol_1

Vconf v2.0 Academic SN VC001-00000579
 37 39  0  0  0  0  0  0  0  0999 V2000
   -2.1510  -13.3790    2.5320 C   0  0  0  0  0  0  0  0  0  0  0
   -2.6800  -12.5470    1.4410 C   0  0  0  0  0  0  0  0  0  0  0
   -2.7890  -11.1550    1.6140 C   0  0  0  0  0  0  0  0  0  0  0
   -3.2970  -10.3400    0.5860 C   0  0  0  0  0  0  0  0  0  0  0
   -3.4120   -8.8880    0.7960 C   0  0  0  0  0  0  0  0  0  0  0
   -3.6910  -10.9310   -0.6310 C   0  0  0  0  0  0  0  0  0  0  0
   -3.5760  -12.3190   -0.8310 C   0  0  0  0  0  0  0  0  0  0  0
   -3.9940  -12.8140   -2.0250 N   0  0  0  0  0  0  0  0  0  0  0
   -3.4400  -13.8350   -2.7230 C   0  0  0  0  0  0  0  0  0  0  0
   -3.9990  -14.1670   -3.9100 N   0  0  0  0  0  0  0  0  0  0  0
   -3.5080  -15.1690   -4.6780 C   0  0  0  0  0  0  0  0  0  0  0
   -2.3880  -15.8950   -4.2520 C   0  0  0  0  0  0  0  0  0  0  0
   -1.8090  -15.5440   -3.0190 C   0  0  0  0  0  0  0  0  0  0  0
   -2.3520  -14.5290   -2.3040 N   0  0  0  0  0  0  0  0  0  0  0
   -0.6900  -16.2110   -2.4960 C   0  0  0  0  0  0  0  0  0  0  0
   -0.0730  -17.2360   -3.1130 N   0  0  0  0  0  0  0  0  0  0  0
    0.9640  -17.7080   -2.4120 C   0  0  0  0  0  0  0  0  0  0  0
    1.7900  -18.8260   -2.8730 C   0  0  0  0  0  0  0  0  0  0  0
    1.1490  -17.0240   -1.2180 C   0  0  0  0  0  0  0  0  0  0  0
   -0.0030  -15.7590   -0.9690 S   0  0  0  0  0  0  0  0  0  0  0
   -3.0850  -13.1230    0.2200 C   0  0  0  0  0  0  0  0  0  0  0
   -2.1300  -14.4330    2.2500 H   0  0  0  0  0  0  0  0  0  0  0
   -1.1350  -13.0620    2.7730 H   0  0  0  0  0  0  0  0  0  0  0
   -2.7790  -13.2660    3.4170 H   0  0  0  0  0  0  0  0  0  0  0
   -2.4990  -10.7320    2.4980 H   0  0  0  0  0  0  0  0  0  0  0
   -3.8230   -8.3930   -0.0860 H   0  0  0  0  0  0  0  0  0  0  0
   -4.0680   -8.6930    1.6440 H   0  0  0  0  0  0  0  0  0  0  0
   -2.4260   -8.4700    1.0040 H   0  0  0  0  0  0  0  0  0  0  0
   -4.0600  -10.3430   -1.3800 H   0  0  0  0  0  0  0  0  0  0  0
   -4.7390  -12.3610   -2.4490 H   0  0  0  0  0  0  0  0  0  0  0
   -3.9550  -15.3940   -5.5670 H   0  0  0  0  0  0  0  0  0  0  0
   -2.0130  -16.6520   -4.8250 H   0  0  0  0  0  0  0  0  0  0  0
    2.5780  -19.0500   -2.1520 H   0  0  0  0  0  0  0  0  0  0  0
    1.1620  -19.7080   -3.0020 H   0  0  0  0  0  0  0  0  0  0  0
    2.2440  -18.5670   -3.8300 H   0  0  0  0  0  0  0  0  0  0  0
    1.8890  -17.2440   -0.5520 H   0  0  0  0  0  0  0  0  0  0  0
   -3.0230  -14.1340    0.1020 H   0  0  0  0  0  0  0  0  0  0  0
  1  2  1  0  0  0  0
  1 22  1  0  0  0  0
  1 23  1  0  0  0  0
  1 24  1  0  0  0  0
  2  3  2  0  0  0  0
  2 21  1  0  0  0  0
  3  4  1  0  0  0  0
  3 25  1  0  0  0  0
  4  5  1  0  0  0  0
  4  6  2  0  0  0  0
  5 26  1  0  0  0  0
  5 27  1  0  0  0  0
  5 28  1  0  0  0  0
  6  7  1  0  0  0  0
  6 29  1  0  0  0  0
  7  8  1  0  0  0  0
  7 21  2  0  0  0  0
  8  9  1  0  0  0  0
  8 30  1  0  0  0  0
  9 10  2  0  0  0  0
  9 14  1  0  0  0  0
 10 11  1  0  0  0  0
 11 12  2  0  0  0  0
 11 31  1  0  0  0  0
 12 13  1  0  0  0  0
 12 32  1  0  0  0  0
 13 14  2  0  0  0  0
 13 15  1  0  0  0  0
 15 16  2  0  0  0  0
 15 20  1  0  0  0  0
 16 17  1  0  0  0  0
 17 18  1  0  0  0  0
 17 19  2  0  0  0  0
 18 33  1  0  0  0  0
 18 34  1  0  0  0  0
 18 35  1  0  0  0  0
 19 20  1  0  0  0  0
 19 36  1  0  0  0  0
 21 37  1  0  0  0  0
M  END
> <From>
www.bindingDB.org

> <BindingDB Reactant_set_id>
50436576

> <Ligand InChI>
InChI=1S/C16H16N4S/c1-10-6-11(2)8-13(7-10)19-16-17-5-4-14(20-16)15-18-12(3)9-21-15/h4-9H,1-3H3,(H,17,19,20)

> <Ligand InChI Key>
IUVDZGOUQXJDQC-UHFFFAOYSA-N

> <BindingDB MonomerID>
50249356

> <BindingDB Ligand Name>
CHEMBL453217::N-(3,5-dimethylphenyl)-4-(4-methylthiazol-2-yl)pyrimidin-2-amine

> <Target Name Assigned by Curator or DataSource>
Cyclin-dependent kinase 2

> <Target Source Organism According to Curator or DataSource>
Homo sapiens

> <Ki (nM)>
 100

> <IC50 (nM)>


> <Kd (nM)>


> <EC50 (nM)>


> <kon (M-1-s-1)>


> <koff (s-1)>


> <pH>


> <Temp C>


> <Curation/DataSource>
ChEMBL

> <Article DOI>
10.1016/j.bmcl.2008.09.106

> <PMID>
18938080

> <PubChem AID>


> <Patent Number>


> <Authors>
Farmer, LJ; Bemis, G; Britt, SD; Cochran, J; Connors, M; Harrington, EM; Hoock, T; Markland, W; Nanthakumar, S; Taslimi, P; Ter Haar, E; Wang, J; Zhaveri, D; Salituro, FG

> <Institution>
Vertex Pharmaceuticals Inc

> <Link to Ligand in BindingDB>
http://www.bindingdb.org/bind/chemsearch/marvin/MolStructure.jsp?monomerid=50249356

> <Link to Ligand-Target Pair in BindingDB>
http://www.bindingdb.org/jsp/dbsearch/PrimarySearch_ki.jsp?energyterm=kJ/mole&tag=pol&polymerid=796&target=Cyclin-dependent+kinase+2&column=ki&startPg=0&Increment=50&submit=Search

> <Link to Ligand-Target Pair in BindingDB>
http://www.bindingdb.org/jsp/dbsearch/PrimarySearch_ki.jsp?energyterm=kJ/mole&tag=r21&monomerid=50249356&enzyme=Cyclin-dependent+kinase+2&column=ki&startPg=0&Increment=50&submit=Search

> <Ligand HET ID in PDB>


> <PDB ID(s) for Ligand-Target Complex>


> <PubChem CID>
44593471

> <PubChem SID>
104103678

> <ChEBI ID of Ligand>


> <ChEMBL ID of Ligand>
CHEMBL453217

> <DrugBank ID of Ligand>


> <IUPHAR_GRAC ID of Ligand>


> <KEGG ID of Ligand>


> <ZINC ID of Ligand>
ZINC40845610

> <Number of Protein Chains in Target (bigger than 1 implies a multichain complex)>
1

> <BindingDB Target Chain Sequence>
MENFQKVEKIGEGTYGVVYKARNKLTGEVVALKKIRLDTETEGVPSTAIREISLLKELNHPNIVKLLDVIHTENKLYLVFEFLHQDLKKFMDASALTGIPLPLIKSYLFQLLQGLAFCHSHRVLHRDLKPQNLLINTEGAIKLADFGLARAFGVPVRTYTHEVVTLWYRAPEILLGCKYYSTAVDIWSLGCIFAEMVTRRALFPGDSEIDQLFRIFRTLGTPDEVVWPGVTSMPDYKPSFPKWARQDFSKVVPPLDEDGRSLLSQMLHYDPNKRISAKAALAHPFFQDVTKPVPHLRL

> <PDB ID(s) of Target Chain>
1CKP,1DI8,1DM2,1E1V,1E1X,1E9H,1F5Q,1FIN,1FQ1,1FVT,1FVV,1G5S,1GIH,1GY3,1GZ8,1H00,1H01,1H07,1H08,1H0V,1H0W,1H1P,1H1Q,1H1R,1H1S,1H24,1H25,1H26,1H27,1H28,1HCK,1HCL,1JST,1JSU,1JSV,1JVP,1KE5,1KE6,1KE7,1KE8,1KE9,1OGU,1OI9,1OIQ,1OIR,1OIU,1OIY,1OKV,1OKW,1OL1,1OL2,1P2A,1P5E,1PF8,1PKD,1PW2,1PXI,1PXJ,1PXK,1PXL,1PXM,1PXN,1PXO,1PXP,1PYE,1QMZ,1R78,1URC,1URW,1V1K,1VYW,1VYZ,1W0X,1W8C,1W98,1WCC,1Y8Y,1Y91,1YKR,2A0C,2A4L,2B52,2B53,2B54,2B55,2BHE,2BHH,2BKZ,2BPM,2BTR,2BTS,2C4G,2C5N,2C5O,2C5V,2C5X,2C5Y,2C68,2C69,2C6I,2C6K,2C6L,2C6M,2C6O,2C6T,2CCH,2CCI,2CJM,2CLX,2DUV,2EXM,2FVD,2G9X,2I40,2J9M,2JGZ,2R3F,2R3G,2R3H,2R3I,2R3J,2R3K,2R3L,2R3M,2R3N,2R3O,2R3P,2R3Q,2R3R,2R64,2UUE,2UZB,2UZD,2UZE,2UZL,2UZN,2UZO,2V0D,2V22,2VTA,2VTH,2VTI,2VTJ,2VTL,2VTM,2VTN,2VTO,2VTP,2VTQ,2VTR,2VTS,2VTT,2VU3,2VV9,2W05,2W06,2W17,2W1H,2WEV,2WFY,2WHB,2WIH,2WIP,2WMA,2WMB,2WPA,2WXV,2X1N,2XMY,2XNB,3BHT,3BHU,3BHV,3DDP,3DDQ,3DOG,3EID,3EJ1,3EOC,3EZR,3EZV,3F5X,3FZ1,3IG7,3IGG,3LE6,3LFN,3LFQ,3LFS,3MY5,3NS9,3PJ8,3PXF,3PXQ,3PXR,3PXY,3PXZ,3PY0,3PY1,3QHR,3QHW,3QL8,3QQF,3QQG,3QQH,3QQJ,3QQK,3QQL,3QRT,3QRU,3QTQ,3QTR,3QTS,3QTU,3QTW,3QTX,3QTZ,3QU0,3QWJ,3QWK,3QX2,3QX4,3QXO,3QXP,3QZF,3QZG,3QZH,3QZI,3R1Q,3R1S,3R1Y,3R28,3R6X,3R71,3R73,3R7E,3R7I,3R7U,3R7V,3R7Y,3R83,3R8L,3R8M,3R8P,3R8U,3R8V,3R8Z,3R9D,3R9H,3R9N,3R9O,3RAH,3RAI,3RAK,3RAL,3RJC,3RK5,3RK7,3RK9,3RKB,3RM6,3RM7,3RMF,3RNI,3ROY,3RPO,3RPR,3RPV,3RPY,3RZB,3S00,3S0O,3S1H,3S2P,3SQQ,3SW4,3SW7,3TI1,3TIY,3TIZ,3TNW,3ULI,3UNJ,3UNK,3WBL,4ACM,4BCK,4BCM,4BCN,4BCO,4BCP,4BCQ,4BGH,4BZD,4CFM,4CFN,4CFU,4CFV,4CFW,4CFX,4D1X,4D1Z,4EK3,4EK4,4EK5,4EK6,4EK8,4EOQ,4EOR,4EOS,4ERW,4EZ3,4EZ7,4FKG,4FKI,4FKJ,4FKL,4FKO,4FKP,4FKQ,4FKR,4FKS,4FKT,4FKU,4FKV,4FKW,4FX3,4GCJ,4I3Z,4II5,4KD1,4LYN,4NJ3,4RJ3,5A14,5AND,5ANE,5ANG,5ANI,5ANJ,5ANK,5ANO,5CYI,5D1J,5FP5,5FP6,5IEV,5IEX,5IEY,5IF1,5JQ5,5JQ8,5K4J,5L2W,5LMK,5MHQ,5NEV,5OO0,5OSJ,5UQ1,5UQ2,5UQ3,6ATH,6GUB,6GUC,6GUE,6GUF,6GUH,6GUK,6GVA,6INL,6JGM,6OQI,6P3W,6Q3B,6Q3C,6Q3F,6Q48,6Q49,6Q4A,6Q4B,6Q4C,6Q4D,6Q4E,6Q4F,6Q4H,6Q4J,6Q4K,6RIJ,6SG4,7ACK,7B5L,7B5R,7B7S,7E34,7KJS,7M2F,7NVQ

> <UniProt (SwissProt) Recommended Name of Target Chain>
Cyclin-dependent kinase 2

> <UniProt (SwissProt) Entry Name of Target Chain>
CDK2_HUMAN

> <UniProt (SwissProt) Primary ID of Target Chain>
P24941

> <UniProt (SwissProt) Secondary ID(s) of Target Chain>
A8K7C6,O75100

> <UniProt (SwissProt) Alternative ID(s) of Target Chain>


> <UniProt (TrEMBL) Submitted Name of Target Chain>


> <UniProt (TrEMBL) Entry Name of Target Chain>


> <UniProt (TrEMBL) Primary ID of Target Chain>
A0A024RB77

> <UniProt (TrEMBL) Secondary ID(s) of Target Chain>


> <UniProt (TrEMBL) Alternative ID(s) of Target Chain>


$$$$
BindingDB_91749_mol_1

Vconf v2.0 Academic SN VC001-00000579
 36 38  0  0  0  0  0  0  0  0999 V2000
    4.6570   -3.9410    0.3540 S   0  0  0  0  0  0  0  0  0  0  0
    3.8470   -5.4290    0.7260 C   0  0  0  0  0  0  0  0  0  0  0
    4.5720   -6.6200    0.9480 C   0  0  0  0  0  0  0  0  0  0  0
    3.9420   -7.7820    1.2620 N   0  0  0  0  0  0  0  0  0  0  0
    4.6050   -8.9440    1.4930 C   0  0  0  0  0  0  0  0  0  0  0
    5.9550   -8.9450    1.4080 N   0  0  0  0  0  0  0  0  0  0  0
    6.6510   -7.8280    1.0970 C   0  0  0  0  0  0  0  0  0  0  0
    5.9760   -6.6240    0.8580 C   0  0  0  0  0  0  0  0  0  0  0
    3.9920  -10.1050    1.8260 N   0  0  0  0  0  0  0  0  0  0  0
    2.6570  -10.2890    1.9730 C   0  0  0  0  0  0  0  0  0  0  0
    1.7190   -9.8460    1.0170 C   0  0  0  0  0  0  0  0  0  0  0
    0.3320  -10.0560    1.1920 C   0  0  0  0  0  0  0  0  0  0  0
   -0.5690   -9.5990    0.2710 N   0  3  0  0  0  0  0  0  0  0  0
   -1.7400   -9.8660    0.3410 O   0  0  0  0  0  0  0  0  0  0  0
   -0.2370   -8.8960   -0.6510 O   0  5  0  0  0  0  0  0  0  0  0
   -0.0960  -10.7490    2.3460 C   0  0  0  0  0  0  0  0  0  0  0
    0.8300  -11.2170    3.2930 C   0  0  0  0  0  0  0  0  0  0  0
    2.2020  -10.9900    3.1040 C   0  0  0  0  0  0  0  0  0  0  0
    2.4580   -5.2670    0.7750 C   0  0  0  0  0  0  0  0  0  0  0
    2.0680   -4.0090    0.5320 N   0  0  0  0  0  0  0  0  0  0  0
    3.1000   -3.1900    0.2940 C   0  0  0  0  0  0  0  0  0  0  0
    2.9320   -1.7670    0.0050 C   0  0  0  0  0  0  0  0  0  0  0
    1.4690   -6.3160    1.0470 C   0  0  0  0  0  0  0  0  0  0  0
    7.6690   -7.8620    1.0400 H   0  0  0  0  0  0  0  0  0  0  0
    6.5040   -5.7810    0.6270 H   0  0  0  0  0  0  0  0  0  0  0
    4.5680  -10.8590    2.0260 H   0  0  0  0  0  0  0  0  0  0  0
    2.0510   -9.3630    0.1810 H   0  0  0  0  0  0  0  0  0  0  0
   -1.0910  -10.9170    2.4990 H   0  0  0  0  0  0  0  0  0  0  0
    0.5050  -11.7210    4.1180 H   0  0  0  0  0  0  0  0  0  0  0
    2.8690  -11.3320    3.7970 H   0  0  0  0  0  0  0  0  0  0  0
    1.8730   -1.5050    0.0180 H   0  0  0  0  0  0  0  0  0  0  0
    3.4570   -1.1820    0.7600 H   0  0  0  0  0  0  0  0  0  0  0
    3.3460   -1.5460   -0.9780 H   0  0  0  0  0  0  0  0  0  0  0
    0.4650   -5.8920    1.0400 H   0  0  0  0  0  0  0  0  0  0  0
    1.5330   -7.0800    0.2740 H   0  0  0  0  0  0  0  0  0  0  0
    1.6580   -6.7630    2.0240 H   0  0  0  0  0  0  0  0  0  0  0
  1  2  1  0  0  0  0
  1 21  1  0  0  0  0
  2  3  1  0  0  0  0
  2 19  2  0  0  0  0
  3  4  2  0  0  0  0
  3  8  1  0  0  0  0
  4  5  1  0  0  0  0
  5  6  2  0  0  0  0
  5  9  1  0  0  0  0
  6  7  1  0  0  0  0
  7  8  2  0  0  0  0
  7 24  1  0  0  0  0
  8 25  1  0  0  0  0
  9 10  1  0  0  0  0
  9 26  1  0  0  0  0
 10 11  2  0  0  0  0
 10 18  1  0  0  0  0
 11 12  1  0  0  0  0
 11 27  1  0  0  0  0
 12 13  1  0  0  0  0
 12 16  2  0  0  0  0
 13 14  2  0  0  0  0
 13 15  1  0  0  0  0
 16 17  1  0  0  0  0
 16 28  1  0  0  0  0
 17 18  2  0  0  0  0
 17 29  1  0  0  0  0
 18 30  1  0  0  0  0
 19 20  1  0  0  0  0
 19 23  1  0  0  0  0
 20 21  2  0  0  0  0
 21 22  1  0  0  0  0
 22 31  1  0  0  0  0
 22 32  1  0  0  0  0
 22 33  1  0  0  0  0
 23 34  1  0  0  0  0
 23 35  1  0  0  0  0
 23 36  1  0  0  0  0
M  CHG  1  13   1
M  CHG  1  15  -1
M  END
> <From>
www.bindingDB.org

> <BindingDB Reactant_set_id>
51251870

> <Ligand InChI>
InChI=1S/C15H13N5O2S/c1-9-14(23-10(2)17-9)13-6-7-16-15(19-13)18-11-4-3-5-12(8-11)20(21)22/h3-8H,1-2H3,(H,16,18,19)

> <Ligand InChI Key>
DEIGLICSSNUYPO-UHFFFAOYSA-N

> <BindingDB MonomerID>
91749

> <BindingDB Ligand Name>
CS16

> <Target Name Assigned by Curator or DataSource>
Cyclin-dependent kinase 2

> <Target Source Organism According to Curator or DataSource>
Homo sapiens

> <Ki (nM)>
 110

> <IC50 (nM)>


> <Kd (nM)>


> <EC50 (nM)>


> <kon (M-1-s-1)>


> <koff (s-1)>


> <pH>


> <Temp C>


> <Curation/DataSource>
ChEMBL

> <Article DOI>
10.1021/acs.jmedchem.8b01469

> <PMID>
30543440

> <PubChem AID>


> <Patent Number>


> <Authors>
Tadesse, S; Caldon, EC; Tilley, W; Wang, S

> <Institution>
University of South Australia Cancer Research Institute

> <Link to Ligand in BindingDB>
http://www.bindingdb.org/bind/chemsearch/marvin/MolStructure.jsp?monomerid=91749

> <Link to Ligand-Target Pair in BindingDB>
http://www.bindingdb.org/jsp/dbsearch/PrimarySearch_ki.jsp?energyterm=kJ/mole&tag=pol&polymerid=796&target=Cyclin-dependent+kinase+2&column=ki&startPg=0&Increment=50&submit=Search

> <Link to Ligand-Target Pair in BindingDB>
http://www.bindingdb.org/jsp/dbsearch/PrimarySearch_ki.jsp?energyterm=kJ/mole&tag=r21&monomerid=91749&enzyme=Cyclin-dependent+kinase+2&column=ki&startPg=0&Increment=50&submit=Search

> <Ligand HET ID in PDB>
16K

> <PDB ID(s) for Ligand-Target Complex>
4EK8

> <PubChem CID>
6539293

> <PubChem SID>
160844246

> <ChEBI ID of Ligand>


> <ChEMBL ID of Ligand>


> <DrugBank ID of Ligand>


> <IUPHAR_GRAC ID of Ligand>


> <KEGG ID of Ligand>


> <ZINC ID of Ligand>
ZINC13559871

> <Number of Protein Chains in Target (bigger than 1 implies a multichain complex)>
1

> <BindingDB Target Chain Sequence>
MENFQKVEKIGEGTYGVVYKARNKLTGEVVALKKIRLDTETEGVPSTAIREISLLKELNHPNIVKLLDVIHTENKLYLVFEFLHQDLKKFMDASALTGIPLPLIKSYLFQLLQGLAFCHSHRVLHRDLKPQNLLINTEGAIKLADFGLARAFGVPVRTYTHEVVTLWYRAPEILLGCKYYSTAVDIWSLGCIFAEMVTRRALFPGDSEIDQLFRIFRTLGTPDEVVWPGVTSMPDYKPSFPKWARQDFSKVVPPLDEDGRSLLSQMLHYDPNKRISAKAALAHPFFQDVTKPVPHLRL

> <PDB ID(s) of Target Chain>
1CKP,1DI8,1DM2,1E1V,1E1X,1E9H,1F5Q,1FIN,1FQ1,1FVT,1FVV,1G5S,1GIH,1GY3,1GZ8,1H00,1H01,1H07,1H08,1H0V,1H0W,1H1P,1H1Q,1H1R,1H1S,1H24,1H25,1H26,1H27,1H28,1HCK,1HCL,1JST,1JSU,1JSV,1JVP,1KE5,1KE6,1KE7,1KE8,1KE9,1OGU,1OI9,1OIQ,1OIR,1OIU,1OIY,1OKV,1OKW,1OL1,1OL2,1P2A,1P5E,1PF8,1PKD,1PW2,1PXI,1PXJ,1PXK,1PXL,1PXM,1PXN,1PXO,1PXP,1PYE,1QMZ,1R78,1URC,1URW,1V1K,1VYW,1VYZ,1W0X,1W8C,1W98,1WCC,1Y8Y,1Y91,1YKR,2A0C,2A4L,2B52,2B53,2B54,2B55,2BHE,2BHH,2BKZ,2BPM,2BTR,2BTS,2C4G,2C5N,2C5O,2C5V,2C5X,2C5Y,2C68,2C69,2C6I,2C6K,2C6L,2C6M,2C6O,2C6T,2CCH,2CCI,2CJM,2CLX,2DUV,2EXM,2FVD,2G9X,2I40,2J9M,2JGZ,2R3F,2R3G,2R3H,2R3I,2R3J,2R3K,2R3L,2R3M,2R3N,2R3O,2R3P,2R3Q,2R3R,2R64,2UUE,2UZB,2UZD,2UZE,2UZL,2UZN,2UZO,2V0D,2V22,2VTA,2VTH,2VTI,2VTJ,2VTL,2VTM,2VTN,2VTO,2VTP,2VTQ,2VTR,2VTS,2VTT,2VU3,2VV9,2W05,2W06,2W17,2W1H,2WEV,2WFY,2WHB,2WIH,2WIP,2WMA,2WMB,2WPA,2WXV,2X1N,2XMY,2XNB,3BHT,3BHU,3BHV,3DDP,3DDQ,3DOG,3EID,3EJ1,3EOC,3EZR,3EZV,3F5X,3FZ1,3IG7,3IGG,3LE6,3LFN,3LFQ,3LFS,3MY5,3NS9,3PJ8,3PXF,3PXQ,3PXR,3PXY,3PXZ,3PY0,3PY1,3QHR,3QHW,3QL8,3QQF,3QQG,3QQH,3QQJ,3QQK,3QQL,3QRT,3QRU,3QTQ,3QTR,3QTS,3QTU,3QTW,3QTX,3QTZ,3QU0,3QWJ,3QWK,3QX2,3QX4,3QXO,3QXP,3QZF,3QZG,3QZH,3QZI,3R1Q,3R1S,3R1Y,3R28,3R6X,3R71,3R73,3R7E,3R7I,3R7U,3R7V,3R7Y,3R83,3R8L,3R8M,3R8P,3R8U,3R8V,3R8Z,3R9D,3R9H,3R9N,3R9O,3RAH,3RAI,3RAK,3RAL,3RJC,3RK5,3RK7,3RK9,3RKB,3RM6,3RM7,3RMF,3RNI,3ROY,3RPO,3RPR,3RPV,3RPY,3RZB,3S00,3S0O,3S1H,3S2P,3SQQ,3SW4,3SW7,3TI1,3TIY,3TIZ,3TNW,3ULI,3UNJ,3UNK,3WBL,4ACM,4BCK,4BCM,4BCN,4BCO,4BCP,4BCQ,4BGH,4BZD,4CFM,4CFN,4CFU,4CFV,4CFW,4CFX,4D1X,4D1Z,4EK3,4EK4,4EK5,4EK6,4EK8,4EOQ,4EOR,4EOS,4ERW,4EZ3,4EZ7,4FKG,4FKI,4FKJ,4FKL,4FKO,4FKP,4FKQ,4FKR,4FKS,4FKT,4FKU,4FKV,4FKW,4FX3,4GCJ,4I3Z,4II5,4KD1,4LYN,4NJ3,4RJ3,5A14,5AND,5ANE,5ANG,5ANI,5ANJ,5ANK,5ANO,5CYI,5D1J,5FP5,5FP6,5IEV,5IEX,5IEY,5IF1,5JQ5,5JQ8,5K4J,5L2W,5LMK,5MHQ,5NEV,5OO0,5OSJ,5UQ1,5UQ2,5UQ3,6ATH,6GUB,6GUC,6GUE,6GUF,6GUH,6GUK,6GVA,6INL,6JGM,6OQI,6P3W,6Q3B,6Q3C,6Q3F,6Q48,6Q49,6Q4A,6Q4B,6Q4C,6Q4D,6Q4E,6Q4F,6Q4H,6Q4J,6Q4K,6RIJ,6SG4,7ACK,7B5L,7B5R,7B7S,7E34,7KJS,7M2F,7NVQ

> <UniProt (SwissProt) Recommended Name of Target Chain>
Cyclin-dependent kinase 2

> <UniProt (SwissProt) Entry Name of Target Chain>
CDK2_HUMAN

> <UniProt (SwissProt) Primary ID of Target Chain>
P24941

> <UniProt (SwissProt) Secondary ID(s) of Target Chain>
A8K7C6,O75100

> <UniProt (SwissProt) Alternative ID(s) of Target Chain>


> <UniProt (TrEMBL) Submitted Name of Target Chain>


> <UniProt (TrEMBL) Entry Name of Target Chain>


> <UniProt (TrEMBL) Primary ID of Target Chain>
A0A024RB77

> <UniProt (TrEMBL) Secondary ID(s) of Target Chain>


> <UniProt (TrEMBL) Alternative ID(s) of Target Chain>


$$$$
BindingDB_50444941_mol_1

Vconf v2.0 Academic SN VC001-00000579
 57 60  0  0  0  0  0  0  0  0999 V2000
   13.0510   -3.1640    0.4850 C   0  0  0  0  0  0  0  0  0  0  0
   13.1130   -4.4060   -0.1880 C   0  0  0  0  0  0  0  0  0  0  0
   13.7940   -5.5000    0.3660 C   0  0  0  0  0  0  0  0  0  0  0
   13.6970   -3.0590    1.7400 C   0  0  0  0  0  0  0  0  0  0  0
   14.3810   -4.1500    2.3250 C   0  0  0  0  0  0  0  0  0  0  0
   14.4260   -5.3750    1.6130 C   0  0  0  0  0  0  0  0  0  0  0
   15.0870   -6.4370    2.1300 N   0  0  0  0  0  0  0  0  0  0  0
   15.7360   -6.4120    3.3220 C   0  0  0  0  0  0  0  0  0  0  0
   15.7190   -5.2180    4.0680 C   0  0  0  0  0  0  0  0  0  0  0
   15.0380   -4.0830    3.5810 C   0  0  0  0  0  0  0  0  0  0  0
   12.3580   -2.0520   -0.0840 C   0  0  0  0  0  0  0  0  0  0  0
   15.0350   -2.9470    4.3640 C   0  0  0  0  0  0  0  0  0  0  0
   16.0670   -2.5100    4.8480 O   0  0  0  0  0  0  0  0  0  0  0
   13.9070   -2.3250    4.6590 O   0  0  0  0  0  0  0  0  0  0  0
   16.3980   -7.5710    3.7730 C   0  0  0  0  0  0  0  0  0  0  0
   16.3420   -8.7030    3.0340 N   0  0  0  0  0  0  0  0  0  0  0
   17.0510   -7.5670    4.8420 O   0  0  0  0  0  0  0  0  0  0  0
   16.9810   -9.9250    3.3940 C   0  0  2  0  0  0  0  0  0  0  0
   16.9510  -10.8190    2.2620 C   0  0  0  0  0  0  0  0  0  0  0
   16.2810  -10.5710    4.6170 C   0  0  0  0  0  0  0  0  0  0  0
   16.9550  -11.8030    5.0770 C   0  0  0  0  0  0  0  0  0  0  0
   18.0490  -11.5140    1.9710 O   0  0  0  0  0  0  0  0  0  0  0
   15.8930  -11.0330    1.6860 O   0  0  0  0  0  0  0  0  0  0  0
   17.9960  -12.5340    0.9730 C   0  0  0  0  0  0  0  0  0  0  0
   18.2570  -11.7400    5.6130 C   0  0  0  0  0  0  0  0  0  0  0
   18.9090  -12.9100    6.0400 C   0  0  0  0  0  0  0  0  0  0  0
   18.2630  -14.1530    5.9370 C   0  0  0  0  0  0  0  0  0  0  0
   16.9630  -14.2240    5.4080 C   0  0  0  0  0  0  0  0  0  0  0
   16.3120  -13.0540    4.9810 C   0  0  0  0  0  0  0  0  0  0  0
   18.8950  -15.2740    6.3490 O   0  0  0  0  0  0  0  0  0  0  0
   12.3560   -1.8280   -1.4820 C   0  0  0  0  0  0  0  0  0  0  0
   11.6760   -0.7350   -2.0430 C   0  0  0  0  0  0  0  0  0  0  0
   10.9810    0.1610   -1.2160 C   0  0  0  0  0  0  0  0  0  0  0
   10.9660   -0.0380    0.1760 C   0  0  0  0  0  0  0  0  0  0  0
   11.6500   -1.1350    0.7320 C   0  0  0  0  0  0  0  0  0  0  0
   10.1270    1.0380    1.1760 Cl  0  0  0  0  0  0  0  0  0  0  0
   12.6530   -4.5300   -1.0910 H   0  0  0  0  0  0  0  0  0  0  0
   13.8290   -6.3860   -0.1390 H   0  0  0  0  0  0  0  0  0  0  0
   13.6810   -2.1630    2.2300 H   0  0  0  0  0  0  0  0  0  0  0
   16.1970   -5.1750    4.9710 H   0  0  0  0  0  0  0  0  0  0  0
   14.0300   -1.5470    5.2400 H   0  0  0  0  0  0  0  0  0  0  0
   15.8530   -8.6730    2.1960 H   0  0  0  0  0  0  0  0  0  0  0
   18.0250   -9.7120    3.6370 H   0  0  0  0  0  0  0  0  0  0  0
   16.2690   -9.8610    5.4450 H   0  0  0  0  0  0  0  0  0  0  0
   15.2440  -10.7830    4.3470 H   0  0  0  0  0  0  0  0  0  0  0
   18.9820  -12.9850    0.8710 H   0  0  0  0  0  0  0  0  0  0  0
   17.2800  -13.3030    1.2660 H   0  0  0  0  0  0  0  0  0  0  0
   17.6980  -12.1050    0.0150 H   0  0  0  0  0  0  0  0  0  0  0
   18.7340  -10.8410    5.6910 H   0  0  0  0  0  0  0  0  0  0  0
   19.8530  -12.8550    6.4240 H   0  0  0  0  0  0  0  0  0  0  0
   16.4900  -15.1250    5.3310 H   0  0  0  0  0  0  0  0  0  0  0
   15.3700  -13.1160    4.5930 H   0  0  0  0  0  0  0  0  0  0  0
   18.3730  -16.0970    6.2500 H   0  0  0  0  0  0  0  0  0  0  0
   12.8630   -2.4560   -2.1080 H   0  0  0  0  0  0  0  0  0  0  0
   11.6890   -0.5900   -3.0520 H   0  0  0  0  0  0  0  0  0  0  0
   10.4900    0.9530   -1.6340 H   0  0  0  0  0  0  0  0  0  0  0
   11.6210   -1.2730    1.7440 H   0  0  0  0  0  0  0  0  0  0  0
  1  2  2  0  0  0  0
  1  4  1  0  0  0  0
  1 11  1  0  0  0  0
  2  3  1  0  0  0  0
  2 37  1  0  0  0  0
  3  6  2  0  0  0  0
  3 38  1  0  0  0  0
  4  5  2  0  0  0  0
  4 39  1  0  0  0  0
  5  6  1  0  0  0  0
  5 10  1  0  0  0  0
  6  7  1  0  0  0  0
  7  8  2  0  0  0  0
  8  9  1  0  0  0  0
  8 15  1  0  0  0  0
  9 10  2  0  0  0  0
  9 40  1  0  0  0  0
 10 12  1  0  0  0  0
 11 31  2  0  0  0  0
 11 35  1  0  0  0  0
 12 13  2  0  0  0  0
 12 14  1  0  0  0  0
 14 41  1  0  0  0  0
 15 16  1  0  0  0  0
 15 17  2  0  0  0  0
 18 16  1  1  0  0  0
 16 42  1  0  0  0  0
 18 19  1  0  0  0  0
 18 20  1  0  0  0  0
 18 43  1  0  0  0  0
 19 22  1  0  0  0  0
 19 23  2  0  0  0  0
 20 21  1  0  0  0  0
 20 44  1  0  0  0  0
 20 45  1  0  0  0  0
 21 25  2  0  0  0  0
 21 29  1  0  0  0  0
 22 24  1  0  0  0  0
 24 46  1  0  0  0  0
 24 47  1  0  0  0  0
 24 48  1  0  0  0  0
 25 26  1  0  0  0  0
 25 49  1  0  0  0  0
 26 27  2  0  0  0  0
 26 50  1  0  0  0  0
 27 28  1  0  0  0  0
 27 30  1  0  0  0  0
 28 29  2  0  0  0  0
 28 51  1  0  0  0  0
 29 52  1  0  0  0  0
 30 53  1  0  0  0  0
 31 32  1  0  0  0  0
 31 54  1  0  0  0  0
 32 33  2  0  0  0  0
 32 55  1  0  0  0  0
 33 34  1  0  0  0  0
 33 56  1  0  0  0  0
 34 35  2  0  0  0  0
 34 36  1  0  0  0  0
 35 57  1  0  0  0  0
M  END
> <From>
www.bindingDB.org

> <BindingDB Reactant_set_id>
50077215

> <Ligand InChI>
InChI=1S/C27H21ClN2O6/c1-36-27(35)24(11-15-5-8-19(31)9-6-15)30-25(32)23-14-21(26(33)34)20-13-17(7-10-22(20)29-23)16-3-2-4-18(28)12-16/h2-10,12-14,24,31H,11H2,1H3,(H,30,32)(H,33,34)/t24-/m0/s1

> <Ligand InChI Key>
LTZGVONWBPMCBP-DEOSSOPVSA-N

> <BindingDB MonomerID>
50444941

> <BindingDB Ligand Name>
CHEMBL3099755

> <Target Name Assigned by Curator or DataSource>
Cyclin-dependent kinase 2

> <Target Source Organism According to Curator or DataSource>
Homo sapiens

> <Ki (nM)>
 140

> <IC50 (nM)>


> <Kd (nM)>


> <EC50 (nM)>


> <kon (M-1-s-1)>


> <koff (s-1)>


> <pH>


> <Temp C>


> <Curation/DataSource>
ChEMBL

> <Article DOI>
10.1016/j.bmcl.2013.11.041

> <PMID>
24332088

> <PubChem AID>


> <Patent Number>


> <Authors>
Deng, Y; Shipps, GW; Zhao, L; Siddiqui, MA; Popovici-Muller, J; Curran, PJ; Duca, JS; Hruza, AW; Fischmann, TO; Madison, VS; Zhang, R; McNemar, CW; Mayhood, TW; Syto, R; Annis, A; Kirschmeier, P; Lees, EM; Parry, DA; Windsor, WT

> <Institution>
Merck Research Laboratories

> <Link to Ligand in BindingDB>
http://www.bindingdb.org/bind/chemsearch/marvin/MolStructure.jsp?monomerid=50444941

> <Link to Ligand-Target Pair in BindingDB>
http://www.bindingdb.org/jsp/dbsearch/PrimarySearch_ki.jsp?energyterm=kJ/mole&tag=pol&polymerid=796&target=Cyclin-dependent+kinase+2&column=ki&startPg=0&Increment=50&submit=Search

> <Link to Ligand-Target Pair in BindingDB>
http://www.bindingdb.org/jsp/dbsearch/PrimarySearch_ki.jsp?energyterm=kJ/mole&tag=r21&monomerid=50444941&enzyme=Cyclin-dependent+kinase+2&column=ki&startPg=0&Increment=50&submit=Search

> <Ligand HET ID in PDB>
2KD

> <PDB ID(s) for Ligand-Target Complex>
4NJ3

> <PubChem CID>
16050817

> <PubChem SID>
194942837

> <ChEBI ID of Ligand>


> <ChEMBL ID of Ligand>
CHEMBL3099755

> <DrugBank ID of Ligand>


> <IUPHAR_GRAC ID of Ligand>


> <KEGG ID of Ligand>


> <ZINC ID of Ligand>


> <Number of Protein Chains in Target (bigger than 1 implies a multichain complex)>
1

> <BindingDB Target Chain Sequence>
MENFQKVEKIGEGTYGVVYKARNKLTGEVVALKKIRLDTETEGVPSTAIREISLLKELNHPNIVKLLDVIHTENKLYLVFEFLHQDLKKFMDASALTGIPLPLIKSYLFQLLQGLAFCHSHRVLHRDLKPQNLLINTEGAIKLADFGLARAFGVPVRTYTHEVVTLWYRAPEILLGCKYYSTAVDIWSLGCIFAEMVTRRALFPGDSEIDQLFRIFRTLGTPDEVVWPGVTSMPDYKPSFPKWARQDFSKVVPPLDEDGRSLLSQMLHYDPNKRISAKAALAHPFFQDVTKPVPHLRL

> <PDB ID(s) of Target Chain>
1CKP,1DI8,1DM2,1E1V,1E1X,1E9H,1F5Q,1FIN,1FQ1,1FVT,1FVV,1G5S,1GIH,1GY3,1GZ8,1H00,1H01,1H07,1H08,1H0V,1H0W,1H1P,1H1Q,1H1R,1H1S,1H24,1H25,1H26,1H27,1H28,1HCK,1HCL,1JST,1JSU,1JSV,1JVP,1KE5,1KE6,1KE7,1KE8,1KE9,1OGU,1OI9,1OIQ,1OIR,1OIU,1OIY,1OKV,1OKW,1OL1,1OL2,1P2A,1P5E,1PF8,1PKD,1PW2,1PXI,1PXJ,1PXK,1PXL,1PXM,1PXN,1PXO,1PXP,1PYE,1QMZ,1R78,1URC,1URW,1V1K,1VYW,1VYZ,1W0X,1W8C,1W98,1WCC,1Y8Y,1Y91,1YKR,2A0C,2A4L,2B52,2B53,2B54,2B55,2BHE,2BHH,2BKZ,2BPM,2BTR,2BTS,2C4G,2C5N,2C5O,2C5V,2C5X,2C5Y,2C68,2C69,2C6I,2C6K,2C6L,2C6M,2C6O,2C6T,2CCH,2CCI,2CJM,2CLX,2DUV,2EXM,2FVD,2G9X,2I40,2J9M,2JGZ,2R3F,2R3G,2R3H,2R3I,2R3J,2R3K,2R3L,2R3M,2R3N,2R3O,2R3P,2R3Q,2R3R,2R64,2UUE,2UZB,2UZD,2UZE,2UZL,2UZN,2UZO,2V0D,2V22,2VTA,2VTH,2VTI,2VTJ,2VTL,2VTM,2VTN,2VTO,2VTP,2VTQ,2VTR,2VTS,2VTT,2VU3,2VV9,2W05,2W06,2W17,2W1H,2WEV,2WFY,2WHB,2WIH,2WIP,2WMA,2WMB,2WPA,2WXV,2X1N,2XMY,2XNB,3BHT,3BHU,3BHV,3DDP,3DDQ,3DOG,3EID,3EJ1,3EOC,3EZR,3EZV,3F5X,3FZ1,3IG7,3IGG,3LE6,3LFN,3LFQ,3LFS,3MY5,3NS9,3PJ8,3PXF,3PXQ,3PXR,3PXY,3PXZ,3PY0,3PY1,3QHR,3QHW,3QL8,3QQF,3QQG,3QQH,3QQJ,3QQK,3QQL,3QRT,3QRU,3QTQ,3QTR,3QTS,3QTU,3QTW,3QTX,3QTZ,3QU0,3QWJ,3QWK,3QX2,3QX4,3QXO,3QXP,3QZF,3QZG,3QZH,3QZI,3R1Q,3R1S,3R1Y,3R28,3R6X,3R71,3R73,3R7E,3R7I,3R7U,3R7V,3R7Y,3R83,3R8L,3R8M,3R8P,3R8U,3R8V,3R8Z,3R9D,3R9H,3R9N,3R9O,3RAH,3RAI,3RAK,3RAL,3RJC,3RK5,3RK7,3RK9,3RKB,3RM6,3RM7,3RMF,3RNI,3ROY,3RPO,3RPR,3RPV,3RPY,3RZB,3S00,3S0O,3S1H,3S2P,3SQQ,3SW4,3SW7,3TI1,3TIY,3TIZ,3TNW,3ULI,3UNJ,3UNK,3WBL,4ACM,4BCK,4BCM,4BCN,4BCO,4BCP,4BCQ,4BGH,4BZD,4CFM,4CFN,4CFU,4CFV,4CFW,4CFX,4D1X,4D1Z,4EK3,4EK4,4EK5,4EK6,4EK8,4EOQ,4EOR,4EOS,4ERW,4EZ3,4EZ7,4FKG,4FKI,4FKJ,4FKL,4FKO,4FKP,4FKQ,4FKR,4FKS,4FKT,4FKU,4FKV,4FKW,4FX3,4GCJ,4I3Z,4II5,4KD1,4LYN,4NJ3,4RJ3,5A14,5AND,5ANE,5ANG,5ANI,5ANJ,5ANK,5ANO,5CYI,5D1J,5FP5,5FP6,5IEV,5IEX,5IEY,5IF1,5JQ5,5JQ8,5K4J,5L2W,5LMK,5MHQ,5NEV,5OO0,5OSJ,5UQ1,5UQ2,5UQ3,6ATH,6GUB,6GUC,6GUE,6GUF,6GUH,6GUK,6GVA,6INL,6JGM,6OQI,6P3W,6Q3B,6Q3C,6Q3F,6Q48,6Q49,6Q4A,6Q4B,6Q4C,6Q4D,6Q4E,6Q4F,6Q4H,6Q4J,6Q4K,6RIJ,6SG4,7ACK,7B5L,7B5R,7B7S,7E34,7KJS,7M2F,7NVQ

> <UniProt (SwissProt) Recommended Name of Target Chain>
Cyclin-dependent kinase 2

> <UniProt (SwissProt) Entry Name of Target Chain>
CDK2_HUMAN

> <UniProt (SwissProt) Primary ID of Target Chain>
P24941

> <UniProt (SwissProt) Secondary ID(s) of Target Chain>
A8K7C6,O75100

> <UniProt (SwissProt) Alternative ID(s) of Target Chain>


> <UniProt (TrEMBL) Submitted Name of Target Chain>


> <UniProt (TrEMBL) Entry Name of Target Chain>


> <UniProt (TrEMBL) Primary ID of Target Chain>
A0A024RB77

> <UniProt (TrEMBL) Secondary ID(s) of Target Chain>


> <UniProt (TrEMBL) Alternative ID(s) of Target Chain>


$$$$
ttt_mol_1

Vconf v2.1
 49 52  0  0  0  0  0  0  0  0999 V2000
    2.0310    3.2770    0.6600 N   0  0  0  0  0  0  0  0  0  0  0
    1.6400    2.0730    0.1810 C   0  0  0  0  0  0  0  0  0  0  0
    2.2870    1.0080    0.8180 C   0  0  0  0  0  0  0  0  0  0  0
    3.4060    1.5440    2.0300 S   0  0  0  0  0  0  0  0  0  0  0
    2.9530    3.1640    1.6370 C   0  0  0  0  0  0  0  0  0  0  0
    0.6470    1.9180   -0.8980 C   0  0  0  0  0  0  0  0  0  0  0
    3.4630    4.1400    2.2290 O   0  0  0  0  0  0  0  0  0  0  0
    2.1030   -0.3730    0.5740 C   0  0  0  0  0  0  0  0  0  0  0
    2.8320   -1.3300    1.3050 C   0  0  0  0  0  0  0  0  0  0  0
    2.6000   -2.6860    1.0390 C   0  0  0  0  0  0  0  0  0  0  0
    1.6940   -3.0490    0.1020 N   0  0  0  0  0  0  0  0  0  0  0
    0.9970   -2.1310   -0.6060 C   0  0  0  0  0  0  0  0  0  0  0
    1.2170   -0.8150   -0.3540 N   0  0  0  0  0  0  0  0  0  0  0
    0.1010   -2.5730   -1.5180 N   0  0  0  0  0  0  0  0  0  0  0
   -0.6730   -1.7840   -2.3020 C   0  0  0  0  0  0  0  0  0  0  0
   -2.8960   -1.2270   -3.1410 C   0  0  0  0  0  0  0  0  0  0  0
   -2.0610   -2.0180   -2.3330 C   0  0  0  0  0  0  0  0  0  0  0
   -0.1270   -0.7690   -3.1140 C   0  0  0  0  0  0  0  0  0  0  0
   -0.9620    0.0220   -3.9210 C   0  0  0  0  0  0  0  0  0  0  0
   -2.3530   -0.1990   -3.9360 C   0  0  0  0  0  0  0  0  0  0  0
    1.5320    4.5300    0.1910 C   0  0  0  0  0  0  0  0  0  0  0
   -3.1620    0.5670   -4.7160 N   0  0  0  0  0  0  0  0  0  0  0
   -3.6220    0.6490   -7.0830 C   0  0  0  0  0  0  0  0  0  0  0
   -3.9750   -0.0060   -5.7380 C   0  0  0  0  0  0  0  0  0  0  0
   -3.2070    1.9870   -4.5820 C   0  0  0  0  0  0  0  0  0  0  0
   -2.8570    2.6300   -5.9340 C   0  0  0  0  0  0  0  0  0  0  0
   -3.7390    2.1140   -6.9940 N   0  0  0  0  0  0  0  0  0  0  0
   -0.1950    1.3230   -0.5430 H   0  0  0  0  0  0  0  0  0  0  0
    0.2690    2.8820   -1.2330 H   0  0  0  0  0  0  0  0  0  0  0
    1.1130    1.4190   -1.7480 H   0  0  0  0  0  0  0  0  0  0  0
    3.5140   -1.0600    2.0150 H   0  0  0  0  0  0  0  0  0  0  0
    3.1120   -3.4020    1.5550 H   0  0  0  0  0  0  0  0  0  0  0
   -0.0300   -3.5310   -1.5800 H   0  0  0  0  0  0  0  0  0  0  0
   -3.9020   -1.4010   -3.1470 H   0  0  0  0  0  0  0  0  0  0  0
   -2.4680   -2.7590   -1.7610 H   0  0  0  0  0  0  0  0  0  0  0
    0.8790   -0.6010   -3.1160 H   0  0  0  0  0  0  0  0  0  0  0
   -0.5550    0.7570   -4.4990 H   0  0  0  0  0  0  0  0  0  0  0
    1.9800    5.3690    0.7270 H   0  0  0  0  0  0  0  0  0  0  0
    1.7580    4.6410   -0.8700 H   0  0  0  0  0  0  0  0  0  0  0
    0.4510    4.5710    0.3340 H   0  0  0  0  0  0  0  0  0  0  0
   -2.6020    0.3790   -7.3620 H   0  0  0  0  0  0  0  0  0  0  0
   -4.3050    0.2820   -7.8490 H   0  0  0  0  0  0  0  0  0  0  0
   -5.0250    0.1870   -5.5100 H   0  0  0  0  0  0  0  0  0  0  0
   -3.8290   -1.0850   -5.8220 H   0  0  0  0  0  0  0  0  0  0  0
   -4.2180    2.2850   -4.2990 H   0  0  0  0  0  0  0  0  0  0  0
   -2.5130    2.3520   -3.8220 H   0  0  0  0  0  0  0  0  0  0  0
   -2.9830    3.7100   -5.8600 H   0  0  0  0  0  0  0  0  0  0  0
   -1.8170    2.4120   -6.1840 H   0  0  0  0  0  0  0  0  0  0  0
   -4.6990    2.3170   -6.7070 H   0  0  0  0  0  0  0  0  0  0  0
  1  2  1  0  0  0  0
  1  5  1  0  0  0  0
  1 21  1  0  0  0  0
  2  3  2  0  0  0  0
  2  6  1  0  0  0  0
  3  4  1  0  0  0  0
  3  8  1  0  0  0  0
  4  5  1  0  0  0  0
  5  7  2  0  0  0  0
  6 28  1  0  0  0  0
  6 29  1  0  0  0  0
  6 30  1  0  0  0  0
  8  9  2  0  0  0  0
  8 13  1  0  0  0  0
  9 10  1  0  0  0  0
  9 31  1  0  0  0  0
 10 11  2  0  0  0  0
 10 32  1  0  0  0  0
 11 12  1  0  0  0  0
 12 13  2  0  0  0  0
 12 14  1  0  0  0  0
 14 15  1  0  0  0  0
 14 33  1  0  0  0  0
 15 17  2  0  0  0  0
 15 18  1  0  0  0  0
 16 17  1  0  0  0  0
 16 20  2  0  0  0  0
 16 34  1  0  0  0  0
 17 35  1  0  0  0  0
 18 19  2  0  0  0  0
 18 36  1  0  0  0  0
 19 20  1  0  0  0  0
 19 37  1  0  0  0  0
 20 22  1  0  0  0  0
 21 38  1  0  0  0  0
 21 39  1  0  0  0  0
 21 40  1  0  0  0  0
 22 24  1  0  0  0  0
 22 25  1  0  0  0  0
 23 24  1  0  0  0  0
 23 27  1  0  0  0  0
 23 41  1  0  0  0  0
 23 42  1  0  0  0  0
 24 43  1  0  0  0  0
 24 44  1  0  0  0  0
 25 26  1  0  0  0  0
 25 45  1  0  0  0  0
 25 46  1  0  0  0  0
 26 27  1  0  0  0  0
 26 47  1  0  0  0  0
 26 48  1  0  0  0  0
 27 49  1  0  0  0  0
M  END
> <From>
www.bindingDB.org

> <BindingDB Reactant_set_id>
50519895

> <Ligand InChI>
InChI=1S/C19H22N6OS/c1-13-17(27-19(26)24(13)2)16-7-8-21-18(23-16)22-14-3-5-15(6-4-14)25-11-9-20-10-12-25/h3-8,20H,9-12H2,1-2H3,(H,21,22,23)

> <Ligand InChI Key>
CGGMDMYBCWDOLZ-UHFFFAOYSA-N

> <BindingDB MonomerID>
81441

> <BindingDB Ligand Name>
CDK Inhibitor, 14

> <Target Name Assigned by Curator or DataSource>
Cyclin-dependent kinase 2

> <Target Source Organism According to Curator or DataSource>
Homo sapiens

> <Ki (nM)>
 149

> <IC50 (nM)>


> <Kd (nM)>


> <EC50 (nM)>


> <kon (M-1-s-1)>


> <koff (s-1)>


> <pH>


> <Temp C>


> <Curation/DataSource>
ChEMBL

> <Article DOI>
10.1021/acs.jmedchem.6b00150

> <PMID>
27171036

> <PubChem AID>


> <Patent Number>


> <Authors>
Sonawane, YA; Taylor, MA; Napoleon, JV; Rana, S; Contreras, JI; Natarajan, A

> <Institution>
University of Nebraska Medical Center

> <Link to Ligand in BindingDB>
http://www.bindingdb.org/bind/chemsearch/marvin/MolStructure.jsp?monomerid=81441

> <Link to Ligand-Target Pair in BindingDB>
http://www.bindingdb.org/jsp/dbsearch/PrimarySearch_ki.jsp?energyterm=kJ/mole&tag=pol&polymerid=796&target=Cyclin-dependent+kinase+2&column=ki&startPg=0&Increment=50&submit=Search

> <Link to Ligand-Target Pair in BindingDB>
http://www.bindingdb.org/jsp/dbsearch/PrimarySearch_ki.jsp?energyterm=kJ/mole&tag=r21&monomerid=81441&enzyme=Cyclin-dependent+kinase+2&column=ki&startPg=0&Increment=50&submit=Search

> <Ligand HET ID in PDB>


> <PDB ID(s) for Ligand-Target Complex>


> <PubChem CID>
11257553

> <PubChem SID>
131342015

> <ChEBI ID of Ligand>


> <ChEMBL ID of Ligand>


> <DrugBank ID of Ligand>


> <IUPHAR_GRAC ID of Ligand>


> <KEGG ID of Ligand>


> <ZINC ID of Ligand>
ZINC58650237

> <Number of Protein Chains in Target (bigger than 1 implies a multichain complex)>
1

> <BindingDB Target Chain Sequence>
MENFQKVEKIGEGTYGVVYKARNKLTGEVVALKKIRLDTETEGVPSTAIREISLLKELNHPNIVKLLDVIHTENKLYLVFEFLHQDLKKFMDASALTGIPLPLIKSYLFQLLQGLAFCHSHRVLHRDLKPQNLLINTEGAIKLADFGLARAFGVPVRTYTHEVVTLWYRAPEILLGCKYYSTAVDIWSLGCIFAEMVTRRALFPGDSEIDQLFRIFRTLGTPDEVVWPGVTSMPDYKPSFPKWARQDFSKVVPPLDEDGRSLLSQMLHYDPNKRISAKAALAHPFFQDVTKPVPHLRL

> <PDB ID(s) of Target Chain>
1CKP,1DI8,1DM2,1E1V,1E1X,1E9H,1F5Q,1FIN,1FQ1,1FVT,1FVV,1G5S,1GIH,1GY3,1GZ8,1H00,1H01,1H07,1H08,1H0V,1H0W,1H1P,1H1Q,1H1R,1H1S,1H24,1H25,1H26,1H27,1H28,1HCK,1HCL,1JST,1JSU,1JSV,1JVP,1KE5,1KE6,1KE7,1KE8,1KE9,1OGU,1OI9,1OIQ,1OIR,1OIU,1OIY,1OKV,1OKW,1OL1,1OL2,1P2A,1P5E,1PF8,1PKD,1PW2,1PXI,1PXJ,1PXK,1PXL,1PXM,1PXN,1PXO,1PXP,1PYE,1QMZ,1R78,1URC,1URW,1V1K,1VYW,1VYZ,1W0X,1W8C,1W98,1WCC,1Y8Y,1Y91,1YKR,2A0C,2A4L,2B52,2B53,2B54,2B55,2BHE,2BHH,2BKZ,2BPM,2BTR,2BTS,2C4G,2C5N,2C5O,2C5V,2C5X,2C5Y,2C68,2C69,2C6I,2C6K,2C6L,2C6M,2C6O,2C6T,2CCH,2CCI,2CJM,2CLX,2DUV,2EXM,2FVD,2G9X,2I40,2J9M,2JGZ,2R3F,2R3G,2R3H,2R3I,2R3J,2R3K,2R3L,2R3M,2R3N,2R3O,2R3P,2R3Q,2R3R,2R64,2UUE,2UZB,2UZD,2UZE,2UZL,2UZN,2UZO,2V0D,2V22,2VTA,2VTH,2VTI,2VTJ,2VTL,2VTM,2VTN,2VTO,2VTP,2VTQ,2VTR,2VTS,2VTT,2VU3,2VV9,2W05,2W06,2W17,2W1H,2WEV,2WFY,2WHB,2WIH,2WIP,2WMA,2WMB,2WPA,2WXV,2X1N,2XMY,2XNB,3BHT,3BHU,3BHV,3DDP,3DDQ,3DOG,3EID,3EJ1,3EOC,3EZR,3EZV,3F5X,3FZ1,3IG7,3IGG,3LE6,3LFN,3LFQ,3LFS,3MY5,3NS9,3PJ8,3PXF,3PXQ,3PXR,3PXY,3PXZ,3PY0,3PY1,3QHR,3QHW,3QL8,3QQF,3QQG,3QQH,3QQJ,3QQK,3QQL,3QRT,3QRU,3QTQ,3QTR,3QTS,3QTU,3QTW,3QTX,3QTZ,3QU0,3QWJ,3QWK,3QX2,3QX4,3QXO,3QXP,3QZF,3QZG,3QZH,3QZI,3R1Q,3R1S,3R1Y,3R28,3R6X,3R71,3R73,3R7E,3R7I,3R7U,3R7V,3R7Y,3R83,3R8L,3R8M,3R8P,3R8U,3R8V,3R8Z,3R9D,3R9H,3R9N,3R9O,3RAH,3RAI,3RAK,3RAL,3RJC,3RK5,3RK7,3RK9,3RKB,3RM6,3RM7,3RMF,3RNI,3ROY,3RPO,3RPR,3RPV,3RPY,3RZB,3S00,3S0O,3S1H,3S2P,3SQQ,3SW4,3SW7,3TI1,3TIY,3TIZ,3TNW,3ULI,3UNJ,3UNK,3WBL,4ACM,4BCK,4BCM,4BCN,4BCO,4BCP,4BCQ,4BGH,4BZD,4CFM,4CFN,4CFU,4CFV,4CFW,4CFX,4D1X,4D1Z,4EK3,4EK4,4EK5,4EK6,4EK8,4EOQ,4EOR,4EOS,4ERW,4EZ3,4EZ7,4FKG,4FKI,4FKJ,4FKL,4FKO,4FKP,4FKQ,4FKR,4FKS,4FKT,4FKU,4FKV,4FKW,4FX3,4GCJ,4I3Z,4II5,4KD1,4LYN,4NJ3,4RJ3,5A14,5AND,5ANE,5ANG,5ANI,5ANJ,5ANK,5ANO,5CYI,5D1J,5FP5,5FP6,5IEV,5IEX,5IEY,5IF1,5JQ5,5JQ8,5K4J,5L2W,5LMK,5MHQ,5NEV,5OO0,5OSJ,5UQ1,5UQ2,5UQ3,6ATH,6GUB,6GUC,6GUE,6GUF,6GUH,6GUK,6GVA,6INL,6JGM,6OQI,6P3W,6Q3B,6Q3C,6Q3F,6Q48,6Q49,6Q4A,6Q4B,6Q4C,6Q4D,6Q4E,6Q4F,6Q4H,6Q4J,6Q4K,6RIJ,6SG4,7ACK,7B5L,7B5R,7B7S,7E34,7KJS,7M2F,7NVQ

> <UniProt (SwissProt) Recommended Name of Target Chain>
Cyclin-dependent kinase 2

> <UniProt (SwissProt) Entry Name of Target Chain>
CDK2_HUMAN

> <UniProt (SwissProt) Primary ID of Target Chain>
P24941

> <UniProt (SwissProt) Secondary ID(s) of Target Chain>
A8K7C6,O75100

> <UniProt (SwissProt) Alternative ID(s) of Target Chain>


> <UniProt (TrEMBL) Submitted Name of Target Chain>


> <UniProt (TrEMBL) Entry Name of Target Chain>


> <UniProt (TrEMBL) Primary ID of Target Chain>
A0A024RB77

> <UniProt (TrEMBL) Secondary ID(s) of Target Chain>


> <UniProt (TrEMBL) Alternative ID(s) of Target Chain>


$$$$
ttt_mol_1

Vconf v2.1
 49 52  0  0  0  0  0  0  0  0999 V2000
    2.0310    3.2770    0.6600 N   0  0  0  0  0  0  0  0  0  0  0
    1.6400    2.0730    0.1810 C   0  0  0  0  0  0  0  0  0  0  0
    2.2870    1.0080    0.8180 C   0  0  0  0  0  0  0  0  0  0  0
    3.4060    1.5440    2.0300 S   0  0  0  0  0  0  0  0  0  0  0
    2.9530    3.1640    1.6370 C   0  0  0  0  0  0  0  0  0  0  0
    0.6470    1.9180   -0.8980 C   0  0  0  0  0  0  0  0  0  0  0
    3.4630    4.1400    2.2290 O   0  0  0  0  0  0  0  0  0  0  0
    2.1030   -0.3730    0.5740 C   0  0  0  0  0  0  0  0  0  0  0
    2.8320   -1.3300    1.3050 C   0  0  0  0  0  0  0  0  0  0  0
    2.6000   -2.6860    1.0390 C   0  0  0  0  0  0  0  0  0  0  0
    1.6940   -3.0490    0.1020 N   0  0  0  0  0  0  0  0  0  0  0
    0.9970   -2.1310   -0.6060 C   0  0  0  0  0  0  0  0  0  0  0
    1.2170   -0.8150   -0.3540 N   0  0  0  0  0  0  0  0  0  0  0
    0.1010   -2.5730   -1.5180 N   0  0  0  0  0  0  0  0  0  0  0
   -0.6730   -1.7840   -2.3020 C   0  0  0  0  0  0  0  0  0  0  0
   -2.8960   -1.2270   -3.1410 C   0  0  0  0  0  0  0  0  0  0  0
   -2.0610   -2.0180   -2.3330 C   0  0  0  0  0  0  0  0  0  0  0
   -0.1270   -0.7690   -3.1140 C   0  0  0  0  0  0  0  0  0  0  0
   -0.9620    0.0220   -3.9210 C   0  0  0  0  0  0  0  0  0  0  0
   -2.3530   -0.1990   -3.9360 C   0  0  0  0  0  0  0  0  0  0  0
    1.5320    4.5300    0.1910 C   0  0  0  0  0  0  0  0  0  0  0
   -3.1620    0.5670   -4.7160 N   0  0  0  0  0  0  0  0  0  0  0
   -3.6220    0.6490   -7.0830 C   0  0  0  0  0  0  0  0  0  0  0
   -3.9750   -0.0060   -5.7380 C   0  0  0  0  0  0  0  0  0  0  0
   -3.2070    1.9870   -4.5820 C   0  0  0  0  0  0  0  0  0  0  0
   -2.8570    2.6300   -5.9340 C   0  0  0  0  0  0  0  0  0  0  0
   -3.7390    2.1140   -6.9940 N   0  0  0  0  0  0  0  0  0  0  0
   -0.1950    1.3230   -0.5430 H   0  0  0  0  0  0  0  0  0  0  0
    0.2690    2.8820   -1.2330 H   0  0  0  0  0  0  0  0  0  0  0
    1.1130    1.4190   -1.7480 H   0  0  0  0  0  0  0  0  0  0  0
    3.5140   -1.0600    2.0150 H   0  0  0  0  0  0  0  0  0  0  0
    3.1120   -3.4020    1.5550 H   0  0  0  0  0  0  0  0  0  0  0
   -0.0300   -3.5310   -1.5800 H   0  0  0  0  0  0  0  0  0  0  0
   -3.9020   -1.4010   -3.1470 H   0  0  0  0  0  0  0  0  0  0  0
   -2.4680   -2.7590   -1.7610 H   0  0  0  0  0  0  0  0  0  0  0
    0.8790   -0.6010   -3.1160 H   0  0  0  0  0  0  0  0  0  0  0
   -0.5550    0.7570   -4.4990 H   0  0  0  0  0  0  0  0  0  0  0
    1.9800    5.3690    0.7270 H   0  0  0  0  0  0  0  0  0  0  0
    1.7580    4.6410   -0.8700 H   0  0  0  0  0  0  0  0  0  0  0
    0.4510    4.5710    0.3340 H   0  0  0  0  0  0  0  0  0  0  0
   -2.6020    0.3790   -7.3620 H   0  0  0  0  0  0  0  0  0  0  0
   -4.3050    0.2820   -7.8490 H   0  0  0  0  0  0  0  0  0  0  0
   -5.0250    0.1870   -5.5100 H   0  0  0  0  0  0  0  0  0  0  0
   -3.8290   -1.0850   -5.8220 H   0  0  0  0  0  0  0  0  0  0  0
   -4.2180    2.2850   -4.2990 H   0  0  0  0  0  0  0  0  0  0  0
   -2.5130    2.3520   -3.8220 H   0  0  0  0  0  0  0  0  0  0  0
   -2.9830    3.7100   -5.8600 H   0  0  0  0  0  0  0  0  0  0  0
   -1.8170    2.4120   -6.1840 H   0  0  0  0  0  0  0  0  0  0  0
   -4.6990    2.3170   -6.7070 H   0  0  0  0  0  0  0  0  0  0  0
  1  2  1  0  0  0  0
  1  5  1  0  0  0  0
  1 21  1  0  0  0  0
  2  3  2  0  0  0  0
  2  6  1  0  0  0  0
  3  4  1  0  0  0  0
  3  8  1  0  0  0  0
  4  5  1  0  0  0  0
  5  7  2  0  0  0  0
  6 28  1  0  0  0  0
  6 29  1  0  0  0  0
  6 30  1  0  0  0  0
  8  9  2  0  0  0  0
  8 13  1  0  0  0  0
  9 10  1  0  0  0  0
  9 31  1  0  0  0  0
 10 11  2  0  0  0  0
 10 32  1  0  0  0  0
 11 12  1  0  0  0  0
 12 13  2  0  0  0  0
 12 14  1  0  0  0  0
 14 15  1  0  0  0  0
 14 33  1  0  0  0  0
 15 17  2  0  0  0  0
 15 18  1  0  0  0  0
 16 17  1  0  0  0  0
 16 20  2  0  0  0  0
 16 34  1  0  0  0  0
 17 35  1  0  0  0  0
 18 19  2  0  0  0  0
 18 36  1  0  0  0  0
 19 20  1  0  0  0  0
 19 37  1  0  0  0  0
 20 22  1  0  0  0  0
 21 38  1  0  0  0  0
 21 39  1  0  0  0  0
 21 40  1  0  0  0  0
 22 24  1  0  0  0  0
 22 25  1  0  0  0  0
 23 24  1  0  0  0  0
 23 27  1  0  0  0  0
 23 41  1  0  0  0  0
 23 42  1  0  0  0  0
 24 43  1  0  0  0  0
 24 44  1  0  0  0  0
 25 26  1  0  0  0  0
 25 45  1  0  0  0  0
 25 46  1  0  0  0  0
 26 27  1  0  0  0  0
 26 47  1  0  0  0  0
 26 48  1  0  0  0  0
 27 49  1  0  0  0  0
M  END
> <From>
www.bindingDB.org

> <BindingDB Reactant_set_id>
153791

> <Ligand InChI>
InChI=1S/C19H22N6OS/c1-13-17(27-19(26)24(13)2)16-7-8-21-18(23-16)22-14-3-5-15(6-4-14)25-11-9-20-10-12-25/h3-8,20H,9-12H2,1-2H3,(H,21,22,23)

> <Ligand InChI Key>
CGGMDMYBCWDOLZ-UHFFFAOYSA-N

> <BindingDB MonomerID>
81441

> <BindingDB Ligand Name>
CDK Inhibitor, 14

> <Target Name Assigned by Curator or DataSource>
Cyclin-dependent kinase 2

> <Target Source Organism According to Curator or DataSource>
Homo sapiens

> <Ki (nM)>
 149

> <IC50 (nM)>


> <Kd (nM)>


> <EC50 (nM)>


> <kon (M-1-s-1)>


> <koff (s-1)>


> <pH>


> <Temp C>


> <Curation/DataSource>
Curated from the literature by BindingDB

> <Article DOI>
10.1016/j.chembiol.2010.07.016

> <PMID>
21035734

> <PubChem AID>


> <Patent Number>


> <Authors>
Wang, S; Griffiths, G; Midgley, CA; Barnett, AL; Cooper, M; Grabarek, J; Ingram, L; Jackson, W; Kontopidis, G; McClue, SJ; McInnes, C; McLachlan, J; Meades, C; Mezna, M; Stuart, I; Thomas, MP; Zheleva, DI; Lane, DP; Jackson, RC; Glover, DM; Blake, DG; Fischer, PM

> <Institution>
Cyclacel Limited

> <Link to Ligand in BindingDB>
http://www.bindingdb.org/bind/chemsearch/marvin/MolStructure.jsp?monomerid=81441

> <Link to Ligand-Target Pair in BindingDB>
http://www.bindingdb.org/jsp/dbsearch/PrimarySearch_ki.jsp?energyterm=kJ/mole&tag=pol&polymerid=796&target=Cyclin-dependent+kinase+2&column=ki&startPg=0&Increment=50&submit=Search

> <Link to Ligand-Target Pair in BindingDB>
http://www.bindingdb.org/jsp/dbsearch/PrimarySearch_ki.jsp?energyterm=kJ/mole&tag=r21&monomerid=81441&enzyme=Cyclin-dependent+kinase+2&column=ki&startPg=0&Increment=50&submit=Search

> <Ligand HET ID in PDB>


> <PDB ID(s) for Ligand-Target Complex>


> <PubChem CID>
11257553

> <PubChem SID>
131342015

> <ChEBI ID of Ligand>


> <ChEMBL ID of Ligand>


> <DrugBank ID of Ligand>


> <IUPHAR_GRAC ID of Ligand>


> <KEGG ID of Ligand>


> <ZINC ID of Ligand>
ZINC58650237

> <Number of Protein Chains in Target (bigger than 1 implies a multichain complex)>
1

> <BindingDB Target Chain Sequence>
MENFQKVEKIGEGTYGVVYKARNKLTGEVVALKKIRLDTETEGVPSTAIREISLLKELNHPNIVKLLDVIHTENKLYLVFEFLHQDLKKFMDASALTGIPLPLIKSYLFQLLQGLAFCHSHRVLHRDLKPQNLLINTEGAIKLADFGLARAFGVPVRTYTHEVVTLWYRAPEILLGCKYYSTAVDIWSLGCIFAEMVTRRALFPGDSEIDQLFRIFRTLGTPDEVVWPGVTSMPDYKPSFPKWARQDFSKVVPPLDEDGRSLLSQMLHYDPNKRISAKAALAHPFFQDVTKPVPHLRL

> <PDB ID(s) of Target Chain>
1CKP,1DI8,1DM2,1E1V,1E1X,1E9H,1F5Q,1FIN,1FQ1,1FVT,1FVV,1G5S,1GIH,1GY3,1GZ8,1H00,1H01,1H07,1H08,1H0V,1H0W,1H1P,1H1Q,1H1R,1H1S,1H24,1H25,1H26,1H27,1H28,1HCK,1HCL,1JST,1JSU,1JSV,1JVP,1KE5,1KE6,1KE7,1KE8,1KE9,1OGU,1OI9,1OIQ,1OIR,1OIU,1OIY,1OKV,1OKW,1OL1,1OL2,1P2A,1P5E,1PF8,1PKD,1PW2,1PXI,1PXJ,1PXK,1PXL,1PXM,1PXN,1PXO,1PXP,1PYE,1QMZ,1R78,1URC,1URW,1V1K,1VYW,1VYZ,1W0X,1W8C,1W98,1WCC,1Y8Y,1Y91,1YKR,2A0C,2A4L,2B52,2B53,2B54,2B55,2BHE,2BHH,2BKZ,2BPM,2BTR,2BTS,2C4G,2C5N,2C5O,2C5V,2C5X,2C5Y,2C68,2C69,2C6I,2C6K,2C6L,2C6M,2C6O,2C6T,2CCH,2CCI,2CJM,2CLX,2DUV,2EXM,2FVD,2G9X,2I40,2J9M,2JGZ,2R3F,2R3G,2R3H,2R3I,2R3J,2R3K,2R3L,2R3M,2R3N,2R3O,2R3P,2R3Q,2R3R,2R64,2UUE,2UZB,2UZD,2UZE,2UZL,2UZN,2UZO,2V0D,2V22,2VTA,2VTH,2VTI,2VTJ,2VTL,2VTM,2VTN,2VTO,2VTP,2VTQ,2VTR,2VTS,2VTT,2VU3,2VV9,2W05,2W06,2W17,2W1H,2WEV,2WFY,2WHB,2WIH,2WIP,2WMA,2WMB,2WPA,2WXV,2X1N,2XMY,2XNB,3BHT,3BHU,3BHV,3DDP,3DDQ,3DOG,3EID,3EJ1,3EOC,3EZR,3EZV,3F5X,3FZ1,3IG7,3IGG,3LE6,3LFN,3LFQ,3LFS,3MY5,3NS9,3PJ8,3PXF,3PXQ,3PXR,3PXY,3PXZ,3PY0,3PY1,3QHR,3QHW,3QL8,3QQF,3QQG,3QQH,3QQJ,3QQK,3QQL,3QRT,3QRU,3QTQ,3QTR,3QTS,3QTU,3QTW,3QTX,3QTZ,3QU0,3QWJ,3QWK,3QX2,3QX4,3QXO,3QXP,3QZF,3QZG,3QZH,3QZI,3R1Q,3R1S,3R1Y,3R28,3R6X,3R71,3R73,3R7E,3R7I,3R7U,3R7V,3R7Y,3R83,3R8L,3R8M,3R8P,3R8U,3R8V,3R8Z,3R9D,3R9H,3R9N,3R9O,3RAH,3RAI,3RAK,3RAL,3RJC,3RK5,3RK7,3RK9,3RKB,3RM6,3RM7,3RMF,3RNI,3ROY,3RPO,3RPR,3RPV,3RPY,3RZB,3S00,3S0O,3S1H,3S2P,3SQQ,3SW4,3SW7,3TI1,3TIY,3TIZ,3TNW,3ULI,3UNJ,3UNK,3WBL,4ACM,4BCK,4BCM,4BCN,4BCO,4BCP,4BCQ,4BGH,4BZD,4CFM,4CFN,4CFU,4CFV,4CFW,4CFX,4D1X,4D1Z,4EK3,4EK4,4EK5,4EK6,4EK8,4EOQ,4EOR,4EOS,4ERW,4EZ3,4EZ7,4FKG,4FKI,4FKJ,4FKL,4FKO,4FKP,4FKQ,4FKR,4FKS,4FKT,4FKU,4FKV,4FKW,4FX3,4GCJ,4I3Z,4II5,4KD1,4LYN,4NJ3,4RJ3,5A14,5AND,5ANE,5ANG,5ANI,5ANJ,5ANK,5ANO,5CYI,5D1J,5FP5,5FP6,5IEV,5IEX,5IEY,5IF1,5JQ5,5JQ8,5K4J,5L2W,5LMK,5MHQ,5NEV,5OO0,5OSJ,5UQ1,5UQ2,5UQ3,6ATH,6GUB,6GUC,6GUE,6GUF,6GUH,6GUK,6GVA,6INL,6JGM,6OQI,6P3W,6Q3B,6Q3C,6Q3F,6Q48,6Q49,6Q4A,6Q4B,6Q4C,6Q4D,6Q4E,6Q4F,6Q4H,6Q4J,6Q4K,6RIJ,6SG4,7ACK,7B5L,7B5R,7B7S,7E34,7KJS,7M2F,7NVQ

> <UniProt (SwissProt) Recommended Name of Target Chain>
Cyclin-dependent kinase 2

> <UniProt (SwissProt) Entry Name of Target Chain>
CDK2_HUMAN

> <UniProt (SwissProt) Primary ID of Target Chain>
P24941

> <UniProt (SwissProt) Secondary ID(s) of Target Chain>
A8K7C6,O75100

> <UniProt (SwissProt) Alternative ID(s) of Target Chain>


> <UniProt (TrEMBL) Submitted Name of Target Chain>


> <UniProt (TrEMBL) Entry Name of Target Chain>


> <UniProt (TrEMBL) Primary ID of Target Chain>
A0A024RB77

> <UniProt (TrEMBL) Secondary ID(s) of Target Chain>


> <UniProt (TrEMBL) Alternative ID(s) of Target Chain>


$$$$
BindingDB_50319617_mol_1

Vconf v2.0 Academic SN VC001-00000579
 52 55  0  0  0  0  0  0  0  0999 V2000
   12.4410  -17.2360    0.5070 C   0  0  0  0  0  0  0  0  0  0  0
   12.5370  -18.6350    0.4960 C   0  0  0  0  0  0  0  0  0  0  0
   13.7490  -19.2360    0.4410 N   0  0  0  0  0  0  0  0  0  0  0
   14.8940  -18.5170    0.3930 C   0  0  0  0  0  0  0  0  0  0  0
   14.8090  -17.1640    0.4050 N   0  0  0  0  0  0  0  0  0  0  0
   13.6340  -16.4910    0.4610 C   0  0  0  0  0  0  0  0  0  0  0
   16.0840  -19.1580    0.3400 N   0  0  0  0  0  0  0  0  0  0  0
   17.2670  -18.5050    0.2860 C   0  0  0  0  0  0  0  0  0  0  0
   18.0120  -18.2990    1.4620 C   0  0  0  0  0  0  0  0  0  0  0
   19.2120  -17.5690    1.4170 C   0  0  0  0  0  0  0  0  0  0  0
   19.6810  -17.0450    0.1960 C   0  0  0  0  0  0  0  0  0  0  0
   18.9430  -17.2700   -0.9820 C   0  0  0  0  0  0  0  0  0  0  0
   17.7420  -17.9980   -0.9390 C   0  0  0  0  0  0  0  0  0  0  0
   13.6180  -15.0810    0.4760 C   0  0  0  0  0  0  0  0  0  0  0
   12.1290  -14.1960    0.5450 S   0  0  0  0  0  0  0  0  0  0  0
   13.0740  -12.7470    0.5350 C   0  0  0  0  0  0  0  0  0  0  0
   14.3990  -12.9370    0.4800 N   0  0  0  0  0  0  0  0  0  0  0
   14.7310  -14.2340    0.4450 C   0  0  0  0  0  0  0  0  0  0  0
   16.1400  -14.6450    0.3820 C   0  0  0  0  0  0  0  0  0  0  0
   12.4990  -11.5300    0.5830 N   0  0  0  0  0  0  0  0  0  0  0
   20.8230  -16.3120    0.1590 N   0  0  0  0  0  0  0  0  0  0  0
   21.9440  -16.7070   -0.6330 C   0  0  0  0  0  0  0  0  0  0  0
   22.2680  -15.5840   -1.6300 C   0  0  0  0  0  0  0  0  0  0  0
   22.3950  -14.3470   -0.9290 O   0  0  0  0  0  0  0  0  0  0  0
   21.2650  -13.9620   -0.1450 C   0  0  0  0  0  0  0  0  0  0  0
   20.9340  -15.0750    0.8620 C   0  0  0  0  0  0  0  0  0  0  0
   13.2550  -10.3310    0.5880 C   0  0  0  0  0  0  0  0  0  0  0
   12.3090   -9.1280    0.6610 C   0  0  0  0  0  0  0  0  0  0  0
   11.5270  -16.7850    0.5500 H   0  0  0  0  0  0  0  0  0  0  0
   11.6900  -19.2040    0.5290 H   0  0  0  0  0  0  0  0  0  0  0
   16.0870  -20.1270    0.3550 H   0  0  0  0  0  0  0  0  0  0  0
   17.6730  -18.6620    2.3530 H   0  0  0  0  0  0  0  0  0  0  0
   19.7390  -17.4120    2.2760 H   0  0  0  0  0  0  0  0  0  0  0
   19.2730  -16.8930   -1.8710 H   0  0  0  0  0  0  0  0  0  0  0
   17.2070  -18.1420   -1.7960 H   0  0  0  0  0  0  0  0  0  0  0
   16.7840  -13.7660    0.3750 H   0  0  0  0  0  0  0  0  0  0  0
   16.3870  -15.2560    1.2510 H   0  0  0  0  0  0  0  0  0  0  0
   16.3170  -15.2200   -0.5280 H   0  0  0  0  0  0  0  0  0  0  0
   11.5320  -11.4750    0.6200 H   0  0  0  0  0  0  0  0  0  0  0
   21.7570  -17.6330   -1.1810 H   0  0  0  0  0  0  0  0  0  0  0
   22.8040  -16.8580    0.0220 H   0  0  0  0  0  0  0  0  0  0  0
   23.2020  -15.8090   -2.1430 H   0  0  0  0  0  0  0  0  0  0  0
   21.4650  -15.5070   -2.3650 H   0  0  0  0  0  0  0  0  0  0  0
   20.4070  -13.7960   -0.7980 H   0  0  0  0  0  0  0  0  0  0  0
   21.4910  -13.0400    0.3910 H   0  0  0  0  0  0  0  0  0  0  0
   20.0120  -14.8150    1.3870 H   0  0  0  0  0  0  0  0  0  0  0
   21.7430  -15.1490    1.5900 H   0  0  0  0  0  0  0  0  0  0  0
   13.9190  -10.3140    1.4540 H   0  0  0  0  0  0  0  0  0  0  0
   13.8510  -10.2620   -0.3240 H   0  0  0  0  0  0  0  0  0  0  0
   12.8930   -8.2080    0.6660 H   0  0  0  0  0  0  0  0  0  0  0
   11.6460   -9.1270   -0.2050 H   0  0  0  0  0  0  0  0  0  0  0
   11.7150   -9.1810    1.5730 H   0  0  0  0  0  0  0  0  0  0  0
  1  2  2  0  0  0  0
  1  6  1  0  0  0  0
  1 29  1  0  0  0  0
  2  3  1  0  0  0  0
  2 30  1  0  0  0  0
  3  4  2  0  0  0  0
  4  5  1  0  0  0  0
  4  7  1  0  0  0  0
  5  6  2  0  0  0  0
  6 14  1  0  0  0  0
  7  8  1  0  0  0  0
  7 31  1  0  0  0  0
  8  9  2  0  0  0  0
  8 13  1  0  0  0  0
  9 10  1  0  0  0  0
  9 32  1  0  0  0  0
 10 11  2  0  0  0  0
 10 33  1  0  0  0  0
 11 12  1  0  0  0  0
 11 21  1  0  0  0  0
 12 13  2  0  0  0  0
 12 34  1  0  0  0  0
 13 35  1  0  0  0  0
 14 15  1  0  0  0  0
 14 18  2  0  0  0  0
 15 16  1  0  0  0  0
 16 17  2  0  0  0  0
 16 20  1  0  0  0  0
 17 18  1  0  0  0  0
 18 19  1  0  0  0  0
 19 36  1  0  0  0  0
 19 37  1  0  0  0  0
 19 38  1  0  0  0  0
 20 27  1  0  0  0  0
 20 39  1  0  0  0  0
 21 22  1  0  0  0  0
 21 26  1  0  0  0  0
 22 23  1  0  0  0  0
 22 40  1  0  0  0  0
 22 41  1  0  0  0  0
 23 24  1  0  0  0  0
 23 42  1  0  0  0  0
 23 43  1  0  0  0  0
 24 25  1  0  0  0  0
 25 26  1  0  0  0  0
 25 44  1  0  0  0  0
 25 45  1  0  0  0  0
 26 46  1  0  0  0  0
 26 47  1  0  0  0  0
 27 28  1  0  0  0  0
 27 48  1  0  0  0  0
 27 49  1  0  0  0  0
 28 50  1  0  0  0  0
 28 51  1  0  0  0  0
 28 52  1  0  0  0  0
M  END
> <From>
www.bindingDB.org

> <BindingDB Reactant_set_id>
50579843

> <Ligand InChI>
InChI=1S/C20H24N6OS/c1-3-21-20-23-14(2)18(28-20)17-8-9-22-19(25-17)24-15-4-6-16(7-5-15)26-10-12-27-13-11-26/h4-9H,3,10-13H2,1-2H3,(H,21,23)(H,22,24,25)

> <Ligand InChI Key>
KBXAGBWPAVTLBI-UHFFFAOYSA-N

> <BindingDB MonomerID>
50319617

> <BindingDB Ligand Name>
CHEMBL1084630::N-Ethyl-4-methyl-5-(2-(4-morpholinophenylamino)pyrimidin-4-yl)thiazol-2-amine

> <Target Name Assigned by Curator or DataSource>
Cyclin-dependent kinase 2

> <Target Source Organism According to Curator or DataSource>
Homo sapiens

> <Ki (nM)>
 151

> <IC50 (nM)>


> <Kd (nM)>


> <EC50 (nM)>


> <kon (M-1-s-1)>


> <koff (s-1)>


> <pH>


> <Temp C>


> <Curation/DataSource>
ChEMBL

> <Article DOI>
10.1021/jm901913s

> <PMID>
20462263

> <PubChem AID>


> <Patent Number>


> <Authors>
Wang, S; Midgley, CA; Scaerou, F; Grabarek, JB; Griffiths, G; Jackson, W; Kontopidis, G; McClue, SJ; McInnes, C; Meades, C; Mezna, M; Plater, A; Stuart, I; Thomas, MP; Wood, G; Clarke, RG; Blake, DG; Zheleva, DI; Lane, DP; Jackson, RC; Glover, DM; Fischer, PM

> <Institution>
Cyclacel Ltd

> <Link to Ligand in BindingDB>
http://www.bindingdb.org/bind/chemsearch/marvin/MolStructure.jsp?monomerid=50319617

> <Link to Ligand-Target Pair in BindingDB>
http://www.bindingdb.org/jsp/dbsearch/PrimarySearch_ki.jsp?energyterm=kJ/mole&tag=pol&polymerid=796&target=Cyclin-dependent+kinase+2&column=ki&startPg=0&Increment=50&submit=Search

> <Link to Ligand-Target Pair in BindingDB>
http://www.bindingdb.org/jsp/dbsearch/PrimarySearch_ki.jsp?energyterm=kJ/mole&tag=r21&monomerid=50319617&enzyme=Cyclin-dependent+kinase+2&column=ki&startPg=0&Increment=50&submit=Search

> <Ligand HET ID in PDB>


> <PDB ID(s) for Ligand-Target Complex>


> <PubChem CID>
10340715

> <PubChem SID>
104153978

> <ChEBI ID of Ligand>


> <ChEMBL ID of Ligand>
CHEMBL1084630

> <DrugBank ID of Ligand>


> <IUPHAR_GRAC ID of Ligand>


> <KEGG ID of Ligand>


> <ZINC ID of Ligand>
ZINC03950136

> <Number of Protein Chains in Target (bigger than 1 implies a multichain complex)>
1

> <BindingDB Target Chain Sequence>
MENFQKVEKIGEGTYGVVYKARNKLTGEVVALKKIRLDTETEGVPSTAIREISLLKELNHPNIVKLLDVIHTENKLYLVFEFLHQDLKKFMDASALTGIPLPLIKSYLFQLLQGLAFCHSHRVLHRDLKPQNLLINTEGAIKLADFGLARAFGVPVRTYTHEVVTLWYRAPEILLGCKYYSTAVDIWSLGCIFAEMVTRRALFPGDSEIDQLFRIFRTLGTPDEVVWPGVTSMPDYKPSFPKWARQDFSKVVPPLDEDGRSLLSQMLHYDPNKRISAKAALAHPFFQDVTKPVPHLRL

> <PDB ID(s) of Target Chain>
1CKP,1DI8,1DM2,1E1V,1E1X,1E9H,1F5Q,1FIN,1FQ1,1FVT,1FVV,1G5S,1GIH,1GY3,1GZ8,1H00,1H01,1H07,1H08,1H0V,1H0W,1H1P,1H1Q,1H1R,1H1S,1H24,1H25,1H26,1H27,1H28,1HCK,1HCL,1JST,1JSU,1JSV,1JVP,1KE5,1KE6,1KE7,1KE8,1KE9,1OGU,1OI9,1OIQ,1OIR,1OIU,1OIY,1OKV,1OKW,1OL1,1OL2,1P2A,1P5E,1PF8,1PKD,1PW2,1PXI,1PXJ,1PXK,1PXL,1PXM,1PXN,1PXO,1PXP,1PYE,1QMZ,1R78,1URC,1URW,1V1K,1VYW,1VYZ,1W0X,1W8C,1W98,1WCC,1Y8Y,1Y91,1YKR,2A0C,2A4L,2B52,2B53,2B54,2B55,2BHE,2BHH,2BKZ,2BPM,2BTR,2BTS,2C4G,2C5N,2C5O,2C5V,2C5X,2C5Y,2C68,2C69,2C6I,2C6K,2C6L,2C6M,2C6O,2C6T,2CCH,2CCI,2CJM,2CLX,2DUV,2EXM,2FVD,2G9X,2I40,2J9M,2JGZ,2R3F,2R3G,2R3H,2R3I,2R3J,2R3K,2R3L,2R3M,2R3N,2R3O,2R3P,2R3Q,2R3R,2R64,2UUE,2UZB,2UZD,2UZE,2UZL,2UZN,2UZO,2V0D,2V22,2VTA,2VTH,2VTI,2VTJ,2VTL,2VTM,2VTN,2VTO,2VTP,2VTQ,2VTR,2VTS,2VTT,2VU3,2VV9,2W05,2W06,2W17,2W1H,2WEV,2WFY,2WHB,2WIH,2WIP,2WMA,2WMB,2WPA,2WXV,2X1N,2XMY,2XNB,3BHT,3BHU,3BHV,3DDP,3DDQ,3DOG,3EID,3EJ1,3EOC,3EZR,3EZV,3F5X,3FZ1,3IG7,3IGG,3LE6,3LFN,3LFQ,3LFS,3MY5,3NS9,3PJ8,3PXF,3PXQ,3PXR,3PXY,3PXZ,3PY0,3PY1,3QHR,3QHW,3QL8,3QQF,3QQG,3QQH,3QQJ,3QQK,3QQL,3QRT,3QRU,3QTQ,3QTR,3QTS,3QTU,3QTW,3QTX,3QTZ,3QU0,3QWJ,3QWK,3QX2,3QX4,3QXO,3QXP,3QZF,3QZG,3QZH,3QZI,3R1Q,3R1S,3R1Y,3R28,3R6X,3R71,3R73,3R7E,3R7I,3R7U,3R7V,3R7Y,3R83,3R8L,3R8M,3R8P,3R8U,3R8V,3R8Z,3R9D,3R9H,3R9N,3R9O,3RAH,3RAI,3RAK,3RAL,3RJC,3RK5,3RK7,3RK9,3RKB,3RM6,3RM7,3RMF,3RNI,3ROY,3RPO,3RPR,3RPV,3RPY,3RZB,3S00,3S0O,3S1H,3S2P,3SQQ,3SW4,3SW7,3TI1,3TIY,3TIZ,3TNW,3ULI,3UNJ,3UNK,3WBL,4ACM,4BCK,4BCM,4BCN,4BCO,4BCP,4BCQ,4BGH,4BZD,4CFM,4CFN,4CFU,4CFV,4CFW,4CFX,4D1X,4D1Z,4EK3,4EK4,4EK5,4EK6,4EK8,4EOQ,4EOR,4EOS,4ERW,4EZ3,4EZ7,4FKG,4FKI,4FKJ,4FKL,4FKO,4FKP,4FKQ,4FKR,4FKS,4FKT,4FKU,4FKV,4FKW,4FX3,4GCJ,4I3Z,4II5,4KD1,4LYN,4NJ3,4RJ3,5A14,5AND,5ANE,5ANG,5ANI,5ANJ,5ANK,5ANO,5CYI,5D1J,5FP5,5FP6,5IEV,5IEX,5IEY,5IF1,5JQ5,5JQ8,5K4J,5L2W,5LMK,5MHQ,5NEV,5OO0,5OSJ,5UQ1,5UQ2,5UQ3,6ATH,6GUB,6GUC,6GUE,6GUF,6GUH,6GUK,6GVA,6INL,6JGM,6OQI,6P3W,6Q3B,6Q3C,6Q3F,6Q48,6Q49,6Q4A,6Q4B,6Q4C,6Q4D,6Q4E,6Q4F,6Q4H,6Q4J,6Q4K,6RIJ,6SG4,7ACK,7B5L,7B5R,7B7S,7E34,7KJS,7M2F,7NVQ

> <UniProt (SwissProt) Recommended Name of Target Chain>
Cyclin-dependent kinase 2

> <UniProt (SwissProt) Entry Name of Target Chain>
CDK2_HUMAN

> <UniProt (SwissProt) Primary ID of Target Chain>
P24941

> <UniProt (SwissProt) Secondary ID(s) of Target Chain>
A8K7C6,O75100

> <UniProt (SwissProt) Alternative ID(s) of Target Chain>


> <UniProt (TrEMBL) Submitted Name of Target Chain>


> <UniProt (TrEMBL) Entry Name of Target Chain>


> <UniProt (TrEMBL) Primary ID of Target Chain>
A0A024RB77

> <UniProt (TrEMBL) Secondary ID(s) of Target Chain>


> <UniProt (TrEMBL) Alternative ID(s) of Target Chain>


$$$$
BindingDB_50319618_mol_1

Vconf v2.0 Academic SN VC001-00000579
 49 52  0  0  0  0  0  0  0  0999 V2000
    3.4670  -17.1450    0.6750 C   0  0  0  0  0  0  0  0  0  0  0
    3.6910  -18.5250    0.7710 C   0  0  0  0  0  0  0  0  0  0  0
    4.9530  -19.0110    0.7320 N   0  0  0  0  0  0  0  0  0  0  0
    6.0260  -18.1990    0.5940 C   0  0  0  0  0  0  0  0  0  0  0
    5.8190  -16.8610    0.5010 N   0  0  0  0  0  0  0  0  0  0  0
    4.5830  -16.2990    0.5380 C   0  0  0  0  0  0  0  0  0  0  0
    7.2530  -18.7710    0.5760 N   0  0  0  0  0  0  0  0  0  0  0
    8.4330  -18.1150    0.4520 C   0  0  0  0  0  0  0  0  0  0  0
    8.6690  -17.1730   -0.5710 C   0  0  0  0  0  0  0  0  0  0  0
    9.9160  -16.5340   -0.6740 C   0  0  0  0  0  0  0  0  0  0  0
   10.9490  -16.8370    0.2340 C   0  0  0  0  0  0  0  0  0  0  0
   10.7180  -17.7900    1.2460 C   0  0  0  0  0  0  0  0  0  0  0
    9.4700  -18.4280    1.3490 C   0  0  0  0  0  0  0  0  0  0  0
    4.4100  -14.9000    0.4530 C   0  0  0  0  0  0  0  0  0  0  0
    2.8320  -14.1860    0.5150 S   0  0  0  0  0  0  0  0  0  0  0
    3.6030  -12.6420    0.3740 C   0  0  0  0  0  0  0  0  0  0  0
    4.9370  -12.6830    0.2850 N   0  0  0  0  0  0  0  0  0  0  0
    5.4150  -13.9340    0.3260 C   0  0  0  0  0  0  0  0  0  0  0
    6.8570  -14.1880    0.2350 C   0  0  0  0  0  0  0  0  0  0  0
    2.9300  -11.4790    0.3510 N   0  0  0  0  0  0  0  0  0  0  0
   12.1550  -16.2170    0.1330 N   0  0  0  0  0  0  0  0  0  0  0
   13.3710  -16.9540   -0.0090 C   0  0  0  0  0  0  0  0  0  0  0
   14.3180  -16.5780    1.1400 C   0  0  0  0  0  0  0  0  0  0  0
   14.4510  -15.1580    1.2010 O   0  0  0  0  0  0  0  0  0  0  0
   13.2320  -14.4290    1.3430 C   0  0  0  0  0  0  0  0  0  0  0
   12.2730  -14.7950    0.1990 C   0  0  0  0  0  0  0  0  0  0  0
    1.5170  -11.4240    0.4390 C   0  0  0  0  0  0  0  0  0  0  0
    2.5140  -16.7800    0.7080 H   0  0  0  0  0  0  0  0  0  0  0
    2.9020  -19.1640    0.8750 H   0  0  0  0  0  0  0  0  0  0  0
    7.2900  -19.7300    0.7110 H   0  0  0  0  0  0  0  0  0  0  0
    7.9340  -16.9530   -1.2440 H   0  0  0  0  0  0  0  0  0  0  0
   10.0720  -15.8500   -1.4150 H   0  0  0  0  0  0  0  0  0  0  0
   11.4590  -18.0190    1.9090 H   0  0  0  0  0  0  0  0  0  0  0
    9.3190  -19.1190    2.0860 H   0  0  0  0  0  0  0  0  0  0  0
    7.3960  -13.2430    0.1570 H   0  0  0  0  0  0  0  0  0  0  0
    7.1990  -14.7180    1.1240 H   0  0  0  0  0  0  0  0  0  0  0
    7.0650  -14.7860   -0.6520 H   0  0  0  0  0  0  0  0  0  0  0
    3.4310  -10.6520    0.2700 H   0  0  0  0  0  0  0  0  0  0  0
   13.8400  -16.6810   -0.9550 H   0  0  0  0  0  0  0  0  0  0  0
   13.2050  -18.0330   -0.0020 H   0  0  0  0  0  0  0  0  0  0  0
   13.9130  -16.9490    2.0830 H   0  0  0  0  0  0  0  0  0  0  0
   15.2960  -17.0280    0.9700 H   0  0  0  0  0  0  0  0  0  0  0
   13.4430  -13.3600    1.3130 H   0  0  0  0  0  0  0  0  0  0  0
   12.7680  -14.6760    2.2990 H   0  0  0  0  0  0  0  0  0  0  0
   12.6860  -14.4290   -0.7420 H   0  0  0  0  0  0  0  0  0  0  0
   11.3110  -14.3090    0.3740 H   0  0  0  0  0  0  0  0  0  0  0
    1.1980  -10.3820    0.4000 H   0  0  0  0  0  0  0  0  0  0  0
    1.0670  -11.9640   -0.3960 H   0  0  0  0  0  0  0  0  0  0  0
    1.1820  -11.8640    1.3800 H   0  0  0  0  0  0  0  0  0  0  0
  1  2  2  0  0  0  0
  1  6  1  0  0  0  0
  1 28  1  0  0  0  0
  2  3  1  0  0  0  0
  2 29  1  0  0  0  0
  3  4  2  0  0  0  0
  4  5  1  0  0  0  0
  4  7  1  0  0  0  0
  5  6  2  0  0  0  0
  6 14  1  0  0  0  0
  7  8  1  0  0  0  0
  7 30  1  0  0  0  0
  8  9  1  0  0  0  0
  8 13  2  0  0  0  0
  9 10  2  0  0  0  0
  9 31  1  0  0  0  0
 10 11  1  0  0  0  0
 10 32  1  0  0  0  0
 11 12  2  0  0  0  0
 11 21  1  0  0  0  0
 12 13  1  0  0  0  0
 12 33  1  0  0  0  0
 13 34  1  0  0  0  0
 14 15  1  0  0  0  0
 14 18  2  0  0  0  0
 15 16  1  0  0  0  0
 16 17  2  0  0  0  0
 16 20  1  0  0  0  0
 17 18  1  0  0  0  0
 18 19  1  0  0  0  0
 19 35  1  0  0  0  0
 19 36  1  0  0  0  0
 19 37  1  0  0  0  0
 20 27  1  0  0  0  0
 20 38  1  0  0  0  0
 21 22  1  0  0  0  0
 21 26  1  0  0  0  0
 22 23  1  0  0  0  0
 22 39  1  0  0  0  0
 22 40  1  0  0  0  0
 23 24  1  0  0  0  0
 23 41  1  0  0  0  0
 23 42  1  0  0  0  0
 24 25  1  0  0  0  0
 25 26  1  0  0  0  0
 25 43  1  0  0  0  0
 25 44  1  0  0  0  0
 26 45  1  0  0  0  0
 26 46  1  0  0  0  0
 27 47  1  0  0  0  0
 27 48  1  0  0  0  0
 27 49  1  0  0  0  0
M  END
> <From>
www.bindingDB.org

> <BindingDB Reactant_set_id>
50579844

> <Ligand InChI>
InChI=1S/C19H22N6OS/c1-13-17(27-19(20-2)22-13)16-7-8-21-18(24-16)23-14-3-5-15(6-4-14)25-9-11-26-12-10-25/h3-8H,9-12H2,1-2H3,(H,20,22)(H,21,23,24)

> <Ligand InChI Key>
KLIUCXHHFFVGMK-UHFFFAOYSA-N

> <BindingDB MonomerID>
50319618

> <BindingDB Ligand Name>
CHEMBL1084629::N,4-Dimethyl-5-(2-(4-morpholinophenylamino)pyrimidin-4-yl)thiazol-2-amine

> <Target Name Assigned by Curator or DataSource>
Cyclin-dependent kinase 2

> <Target Source Organism According to Curator or DataSource>
Homo sapiens

> <Ki (nM)>
 156

> <IC50 (nM)>


> <Kd (nM)>


> <EC50 (nM)>


> <kon (M-1-s-1)>


> <koff (s-1)>


> <pH>


> <Temp C>


> <Curation/DataSource>
ChEMBL

> <Article DOI>
10.1021/jm901913s

> <PMID>
20462263

> <PubChem AID>


> <Patent Number>


> <Authors>
Wang, S; Midgley, CA; Scaerou, F; Grabarek, JB; Griffiths, G; Jackson, W; Kontopidis, G; McClue, SJ; McInnes, C; Meades, C; Mezna, M; Plater, A; Stuart, I; Thomas, MP; Wood, G; Clarke, RG; Blake, DG; Zheleva, DI; Lane, DP; Jackson, RC; Glover, DM; Fischer, PM

> <Institution>
Cyclacel Ltd

> <Link to Ligand in BindingDB>
http://www.bindingdb.org/bind/chemsearch/marvin/MolStructure.jsp?monomerid=50319618

> <Link to Ligand-Target Pair in BindingDB>
http://www.bindingdb.org/jsp/dbsearch/PrimarySearch_ki.jsp?energyterm=kJ/mole&tag=pol&polymerid=796&target=Cyclin-dependent+kinase+2&column=ki&startPg=0&Increment=50&submit=Search

> <Link to Ligand-Target Pair in BindingDB>
http://www.bindingdb.org/jsp/dbsearch/PrimarySearch_ki.jsp?energyterm=kJ/mole&tag=r21&monomerid=50319618&enzyme=Cyclin-dependent+kinase+2&column=ki&startPg=0&Increment=50&submit=Search

> <Ligand HET ID in PDB>


> <PDB ID(s) for Ligand-Target Complex>


> <PubChem CID>
10430000

> <PubChem SID>
104153979

> <ChEBI ID of Ligand>


> <ChEMBL ID of Ligand>
CHEMBL1084629

> <DrugBank ID of Ligand>


> <IUPHAR_GRAC ID of Ligand>


> <KEGG ID of Ligand>


> <ZINC ID of Ligand>
ZINC03950135

> <Number of Protein Chains in Target (bigger than 1 implies a multichain complex)>
1

> <BindingDB Target Chain Sequence>
MENFQKVEKIGEGTYGVVYKARNKLTGEVVALKKIRLDTETEGVPSTAIREISLLKELNHPNIVKLLDVIHTENKLYLVFEFLHQDLKKFMDASALTGIPLPLIKSYLFQLLQGLAFCHSHRVLHRDLKPQNLLINTEGAIKLADFGLARAFGVPVRTYTHEVVTLWYRAPEILLGCKYYSTAVDIWSLGCIFAEMVTRRALFPGDSEIDQLFRIFRTLGTPDEVVWPGVTSMPDYKPSFPKWARQDFSKVVPPLDEDGRSLLSQMLHYDPNKRISAKAALAHPFFQDVTKPVPHLRL

> <PDB ID(s) of Target Chain>
1CKP,1DI8,1DM2,1E1V,1E1X,1E9H,1F5Q,1FIN,1FQ1,1FVT,1FVV,1G5S,1GIH,1GY3,1GZ8,1H00,1H01,1H07,1H08,1H0V,1H0W,1H1P,1H1Q,1H1R,1H1S,1H24,1H25,1H26,1H27,1H28,1HCK,1HCL,1JST,1JSU,1JSV,1JVP,1KE5,1KE6,1KE7,1KE8,1KE9,1OGU,1OI9,1OIQ,1OIR,1OIU,1OIY,1OKV,1OKW,1OL1,1OL2,1P2A,1P5E,1PF8,1PKD,1PW2,1PXI,1PXJ,1PXK,1PXL,1PXM,1PXN,1PXO,1PXP,1PYE,1QMZ,1R78,1URC,1URW,1V1K,1VYW,1VYZ,1W0X,1W8C,1W98,1WCC,1Y8Y,1Y91,1YKR,2A0C,2A4L,2B52,2B53,2B54,2B55,2BHE,2BHH,2BKZ,2BPM,2BTR,2BTS,2C4G,2C5N,2C5O,2C5V,2C5X,2C5Y,2C68,2C69,2C6I,2C6K,2C6L,2C6M,2C6O,2C6T,2CCH,2CCI,2CJM,2CLX,2DUV,2EXM,2FVD,2G9X,2I40,2J9M,2JGZ,2R3F,2R3G,2R3H,2R3I,2R3J,2R3K,2R3L,2R3M,2R3N,2R3O,2R3P,2R3Q,2R3R,2R64,2UUE,2UZB,2UZD,2UZE,2UZL,2UZN,2UZO,2V0D,2V22,2VTA,2VTH,2VTI,2VTJ,2VTL,2VTM,2VTN,2VTO,2VTP,2VTQ,2VTR,2VTS,2VTT,2VU3,2VV9,2W05,2W06,2W17,2W1H,2WEV,2WFY,2WHB,2WIH,2WIP,2WMA,2WMB,2WPA,2WXV,2X1N,2XMY,2XNB,3BHT,3BHU,3BHV,3DDP,3DDQ,3DOG,3EID,3EJ1,3EOC,3EZR,3EZV,3F5X,3FZ1,3IG7,3IGG,3LE6,3LFN,3LFQ,3LFS,3MY5,3NS9,3PJ8,3PXF,3PXQ,3PXR,3PXY,3PXZ,3PY0,3PY1,3QHR,3QHW,3QL8,3QQF,3QQG,3QQH,3QQJ,3QQK,3QQL,3QRT,3QRU,3QTQ,3QTR,3QTS,3QTU,3QTW,3QTX,3QTZ,3QU0,3QWJ,3QWK,3QX2,3QX4,3QXO,3QXP,3QZF,3QZG,3QZH,3QZI,3R1Q,3R1S,3R1Y,3R28,3R6X,3R71,3R73,3R7E,3R7I,3R7U,3R7V,3R7Y,3R83,3R8L,3R8M,3R8P,3R8U,3R8V,3R8Z,3R9D,3R9H,3R9N,3R9O,3RAH,3RAI,3RAK,3RAL,3RJC,3RK5,3RK7,3RK9,3RKB,3RM6,3RM7,3RMF,3RNI,3ROY,3RPO,3RPR,3RPV,3RPY,3RZB,3S00,3S0O,3S1H,3S2P,3SQQ,3SW4,3SW7,3TI1,3TIY,3TIZ,3TNW,3ULI,3UNJ,3UNK,3WBL,4ACM,4BCK,4BCM,4BCN,4BCO,4BCP,4BCQ,4BGH,4BZD,4CFM,4CFN,4CFU,4CFV,4CFW,4CFX,4D1X,4D1Z,4EK3,4EK4,4EK5,4EK6,4EK8,4EOQ,4EOR,4EOS,4ERW,4EZ3,4EZ7,4FKG,4FKI,4FKJ,4FKL,4FKO,4FKP,4FKQ,4FKR,4FKS,4FKT,4FKU,4FKV,4FKW,4FX3,4GCJ,4I3Z,4II5,4KD1,4LYN,4NJ3,4RJ3,5A14,5AND,5ANE,5ANG,5ANI,5ANJ,5ANK,5ANO,5CYI,5D1J,5FP5,5FP6,5IEV,5IEX,5IEY,5IF1,5JQ5,5JQ8,5K4J,5L2W,5LMK,5MHQ,5NEV,5OO0,5OSJ,5UQ1,5UQ2,5UQ3,6ATH,6GUB,6GUC,6GUE,6GUF,6GUH,6GUK,6GVA,6INL,6JGM,6OQI,6P3W,6Q3B,6Q3C,6Q3F,6Q48,6Q49,6Q4A,6Q4B,6Q4C,6Q4D,6Q4E,6Q4F,6Q4H,6Q4J,6Q4K,6RIJ,6SG4,7ACK,7B5L,7B5R,7B7S,7E34,7KJS,7M2F,7NVQ

> <UniProt (SwissProt) Recommended Name of Target Chain>
Cyclin-dependent kinase 2

> <UniProt (SwissProt) Entry Name of Target Chain>
CDK2_HUMAN

> <UniProt (SwissProt) Primary ID of Target Chain>
P24941

> <UniProt (SwissProt) Secondary ID(s) of Target Chain>
A8K7C6,O75100

> <UniProt (SwissProt) Alternative ID(s) of Target Chain>


> <UniProt (TrEMBL) Submitted Name of Target Chain>


> <UniProt (TrEMBL) Entry Name of Target Chain>


> <UniProt (TrEMBL) Primary ID of Target Chain>
A0A024RB77

> <UniProt (TrEMBL) Secondary ID(s) of Target Chain>


> <UniProt (TrEMBL) Alternative ID(s) of Target Chain>


$$$$
BindingDB_50444920_mol_1

Vconf v2.0 Academic SN VC001-00000579
 65 68  0  0  0  0  0  0  0  0999 V2000
    8.5370  -11.4150    0.6620 C   0  0  0  0  0  0  0  0  0  0  0
    9.0310  -12.4710   -0.1300 C   0  0  0  0  0  0  0  0  0  0  0
   10.1380  -13.2250    0.2920 C   0  0  0  0  0  0  0  0  0  0  0
    9.1900  -11.1100    1.8780 C   0  0  0  0  0  0  0  0  0  0  0
   10.3130  -11.8500    2.3160 C   0  0  0  0  0  0  0  0  0  0  0
   10.7710  -12.9220    1.5070 C   0  0  0  0  0  0  0  0  0  0  0
   11.8280  -13.6690    1.9060 N   0  0  0  0  0  0  0  0  0  0  0
   12.5050  -13.4590    3.0640 C   0  0  0  0  0  0  0  0  0  0  0
   12.0930  -12.4010    3.8970 C   0  0  0  0  0  0  0  0  0  0  0
   11.0020  -11.5870    3.5290 C   0  0  0  0  0  0  0  0  0  0  0
    7.4430  -10.6980    0.2140 C   0  0  0  0  0  0  0  0  0  0  0
   10.6540  -10.5530    4.3730 C   0  0  0  0  0  0  0  0  0  0  0
   10.5140  -10.7360    5.5720 O   0  0  0  0  0  0  0  0  0  0  0
   10.5170   -9.3200    3.9190 O   0  0  0  0  0  0  0  0  0  0  0
   13.5850  -14.3000    3.3940 C   0  0  0  0  0  0  0  0  0  0  0
   13.9360  -15.2940    2.5450 N   0  0  0  0  0  0  0  0  0  0  0
   14.2160  -14.1500    4.4660 O   0  0  0  0  0  0  0  0  0  0  0
   14.9840  -16.2320    2.7820 C   0  0  2  0  0  0  0  0  0  0  0
   15.9660  -16.1250    1.6810 C   0  0  0  0  0  0  0  0  0  0  0
   14.3950  -17.6620    2.8410 C   0  0  0  0  0  0  0  0  0  0  0
   13.4270  -17.8310    3.9460 C   0  0  0  0  0  0  0  0  0  0  0
   13.8560  -17.7430    5.2860 C   0  0  0  0  0  0  0  0  0  0  0
   12.9380  -17.8930    6.3400 C   0  0  0  0  0  0  0  0  0  0  0
   11.5820  -18.1340    6.0620 C   0  0  0  0  0  0  0  0  0  0  0
   11.1460  -18.2270    4.7290 C   0  0  0  0  0  0  0  0  0  0  0
   12.0650  -18.0770    3.6770 C   0  0  0  0  0  0  0  0  0  0  0
    6.4950  -10.2000    1.0240 C   0  0  0  0  0  0  0  0  0  0  0
   10.7030  -18.2760    7.0800 O   0  0  0  0  0  0  0  0  0  0  0
    5.3880   -9.5000    0.5780 C   0  0  0  0  0  0  0  0  0  0  0
    5.4350   -8.6510   -0.5500 C   0  0  0  0  0  0  0  0  0  0  0
    4.2920   -7.9470   -0.9660 C   0  0  0  0  0  0  0  0  0  0  0
    3.0840   -8.0780   -0.2560 C   0  0  0  0  0  0  0  0  0  0  0
    3.0290   -8.9140    0.8740 C   0  0  0  0  0  0  0  0  0  0  0
    4.1740   -9.6160    1.2880 C   0  0  0  0  0  0  0  0  0  0  0
    1.7070   -7.2330   -0.7560 Cl  0  0  0  0  0  0  0  0  0  0  0
   17.2760  -15.7720    1.8600 N   0  0  0  0  0  0  0  0  0  0  0
   15.5550  -16.3720    0.5220 O   0  0  0  0  0  0  0  0  0  0  0
   17.7970  -15.4630    3.1530 C   0  0  0  0  0  0  0  0  0  0  0
   18.1420  -15.7020    0.7260 C   0  0  0  0  0  0  0  0  0  0  0
    8.5810  -12.7030   -1.0170 H   0  0  0  0  0  0  0  0  0  0  0
   10.4780  -13.9940   -0.2870 H   0  0  0  0  0  0  0  0  0  0  0
    8.8380  -10.3380    2.4450 H   0  0  0  0  0  0  0  0  0  0  0
   12.5900  -12.2190    4.7720 H   0  0  0  0  0  0  0  0  0  0  0
    7.3460  -10.5760   -0.7670 H   0  0  0  0  0  0  0  0  0  0  0
   10.2970   -8.6690    4.6170 H   0  0  0  0  0  0  0  0  0  0  0
   13.4330  -15.3770    1.7190 H   0  0  0  0  0  0  0  0  0  0  0
   15.4730  -16.0310    3.7340 H   0  0  0  0  0  0  0  0  0  0  0
   13.9130  -17.8830    1.8850 H   0  0  0  0  0  0  0  0  0  0  0
   15.2070  -18.3790    2.9800 H   0  0  0  0  0  0  0  0  0  0  0
   14.8380  -17.5650    5.4970 H   0  0  0  0  0  0  0  0  0  0  0
   13.2570  -17.8240    7.3060 H   0  0  0  0  0  0  0  0  0  0  0
   10.1620  -18.4020    4.5230 H   0  0  0  0  0  0  0  0  0  0  0
   11.7380  -18.1420    2.7120 H   0  0  0  0  0  0  0  0  0  0  0
    6.5690  -10.3650    2.0010 H   0  0  0  0  0  0  0  0  0  0  0
    9.7770  -18.4340    6.8010 H   0  0  0  0  0  0  0  0  0  0  0
    6.3040   -8.5340   -1.0730 H   0  0  0  0  0  0  0  0  0  0  0
    4.3480   -7.3400   -1.7850 H   0  0  0  0  0  0  0  0  0  0  0
    2.1610   -9.0180    1.4010 H   0  0  0  0  0  0  0  0  0  0  0
    4.1170  -10.2180    2.1110 H   0  0  0  0  0  0  0  0  0  0  0
   18.8520  -15.1930    3.1030 H   0  0  0  0  0  0  0  0  0  0  0
   17.2490  -14.6210    3.5810 H   0  0  0  0  0  0  0  0  0  0  0
   17.6980  -16.3300    3.8090 H   0  0  0  0  0  0  0  0  0  0  0
   19.1540  -15.4110    1.0120 H   0  0  0  0  0  0  0  0  0  0  0
   18.1900  -16.6770    0.2380 H   0  0  0  0  0  0  0  0  0  0  0
   17.7610  -14.9670    0.0150 H   0  0  0  0  0  0  0  0  0  0  0
  1  2  2  0  0  0  0
  1  4  1  0  0  0  0
  1 11  1  0  0  0  0
  2  3  1  0  0  0  0
  2 40  1  0  0  0  0
  3  6  2  0  0  0  0
  3 41  1  0  0  0  0
  4  5  2  0  0  0  0
  4 42  1  0  0  0  0
  5  6  1  0  0  0  0
  5 10  1  0  0  0  0
  6  7  1  0  0  0  0
  7  8  2  0  0  0  0
  8  9  1  0  0  0  0
  8 15  1  0  0  0  0
  9 10  2  0  0  0  0
  9 43  1  0  0  0  0
 10 12  1  0  0  0  0
 11 27  2  0  0  0  0
 11 44  1  0  0  0  0
 12 13  2  0  0  0  0
 12 14  1  0  0  0  0
 14 45  1  0  0  0  0
 15 16  1  0  0  0  0
 15 17  2  0  0  0  0
 18 16  1  1  0  0  0
 16 46  1  0  0  0  0
 18 19  1  0  0  0  0
 18 20  1  0  0  0  0
 18 47  1  0  0  0  0
 19 36  1  0  0  0  0
 19 37  2  0  0  0  0
 20 21  1  0  0  0  0
 20 48  1  0  0  0  0
 20 49  1  0  0  0  0
 21 22  2  0  0  0  0
 21 26  1  0  0  0  0
 22 23  1  0  0  0  0
 22 50  1  0  0  0  0
 23 24  2  0  0  0  0
 23 51  1  0  0  0  0
 24 25  1  0  0  0  0
 24 28  1  0  0  0  0
 25 26  2  0  0  0  0
 25 52  1  0  0  0  0
 26 53  1  0  0  0  0
 27 29  1  0  0  0  0
 27 54  1  0  0  0  0
 28 55  1  0  0  0  0
 29 30  2  0  0  0  0
 29 34  1  0  0  0  0
 30 31  1  0  0  0  0
 30 56  1  0  0  0  0
 31 32  2  0  0  0  0
 31 57  1  0  0  0  0
 32 33  1  0  0  0  0
 32 35  1  0  0  0  0
 33 34  2  0  0  0  0
 33 58  1  0  0  0  0
 34 59  1  0  0  0  0
 36 38  1  0  0  0  0
 36 39  1  0  0  0  0
 38 60  1  0  0  0  0
 38 61  1  0  0  0  0
 38 62  1  0  0  0  0
 39 63  1  0  0  0  0
 39 64  1  0  0  0  0
 39 65  1  0  0  0  0
M  END
> <From>
www.bindingDB.org

> <BindingDB Reactant_set_id>
50077177

> <Ligand InChI>
InChI=1S/C30H26ClN3O5/c1-34(2)29(37)27(16-20-7-12-22(35)13-8-20)33-28(36)26-17-24(30(38)39)23-15-19(9-14-25(23)32-26)4-3-18-5-10-21(31)11-6-18/h3-15,17,27,35H,16H2,1-2H3,(H,33,36)(H,38,39)/b4-3+/t27-/m0/s1

> <Ligand InChI Key>
BHBDKGIDYKROMY-BAJJQUEBSA-N

> <BindingDB MonomerID>
50444920

> <BindingDB Ligand Name>
CHEMBL3099751

> <Target Name Assigned by Curator or DataSource>
Cyclin-dependent kinase 2

> <Target Source Organism According to Curator or DataSource>
Homo sapiens

> <Ki (nM)>
 160

> <IC50 (nM)>


> <Kd (nM)>


> <EC50 (nM)>


> <kon (M-1-s-1)>


> <koff (s-1)>


> <pH>


> <Temp C>


> <Curation/DataSource>
ChEMBL

> <Article DOI>
10.1016/j.bmcl.2013.11.041

> <PMID>
24332088

> <PubChem AID>


> <Patent Number>


> <Authors>
Deng, Y; Shipps, GW; Zhao, L; Siddiqui, MA; Popovici-Muller, J; Curran, PJ; Duca, JS; Hruza, AW; Fischmann, TO; Madison, VS; Zhang, R; McNemar, CW; Mayhood, TW; Syto, R; Annis, A; Kirschmeier, P; Lees, EM; Parry, DA; Windsor, WT

> <Institution>
Merck Research Laboratories

> <Link to Ligand in BindingDB>
http://www.bindingdb.org/bind/chemsearch/marvin/MolStructure.jsp?monomerid=50444920

> <Link to Ligand-Target Pair in BindingDB>
http://www.bindingdb.org/jsp/dbsearch/PrimarySearch_ki.jsp?energyterm=kJ/mole&tag=pol&polymerid=796&target=Cyclin-dependent+kinase+2&column=ki&startPg=0&Increment=50&submit=Search

> <Link to Ligand-Target Pair in BindingDB>
http://www.bindingdb.org/jsp/dbsearch/PrimarySearch_ki.jsp?energyterm=kJ/mole&tag=r21&monomerid=50444920&enzyme=Cyclin-dependent+kinase+2&column=ki&startPg=0&Increment=50&submit=Search

> <Ligand HET ID in PDB>


> <PDB ID(s) for Ligand-Target Complex>


> <PubChem CID>
57602200

> <PubChem SID>
194942816

> <ChEBI ID of Ligand>


> <ChEMBL ID of Ligand>
CHEMBL3099751

> <DrugBank ID of Ligand>


> <IUPHAR_GRAC ID of Ligand>


> <KEGG ID of Ligand>


> <ZINC ID of Ligand>


> <Number of Protein Chains in Target (bigger than 1 implies a multichain complex)>
1

> <BindingDB Target Chain Sequence>
MENFQKVEKIGEGTYGVVYKARNKLTGEVVALKKIRLDTETEGVPSTAIREISLLKELNHPNIVKLLDVIHTENKLYLVFEFLHQDLKKFMDASALTGIPLPLIKSYLFQLLQGLAFCHSHRVLHRDLKPQNLLINTEGAIKLADFGLARAFGVPVRTYTHEVVTLWYRAPEILLGCKYYSTAVDIWSLGCIFAEMVTRRALFPGDSEIDQLFRIFRTLGTPDEVVWPGVTSMPDYKPSFPKWARQDFSKVVPPLDEDGRSLLSQMLHYDPNKRISAKAALAHPFFQDVTKPVPHLRL

> <PDB ID(s) of Target Chain>
1CKP,1DI8,1DM2,1E1V,1E1X,1E9H,1F5Q,1FIN,1FQ1,1FVT,1FVV,1G5S,1GIH,1GY3,1GZ8,1H00,1H01,1H07,1H08,1H0V,1H0W,1H1P,1H1Q,1H1R,1H1S,1H24,1H25,1H26,1H27,1H28,1HCK,1HCL,1JST,1JSU,1JSV,1JVP,1KE5,1KE6,1KE7,1KE8,1KE9,1OGU,1OI9,1OIQ,1OIR,1OIU,1OIY,1OKV,1OKW,1OL1,1OL2,1P2A,1P5E,1PF8,1PKD,1PW2,1PXI,1PXJ,1PXK,1PXL,1PXM,1PXN,1PXO,1PXP,1PYE,1QMZ,1R78,1URC,1URW,1V1K,1VYW,1VYZ,1W0X,1W8C,1W98,1WCC,1Y8Y,1Y91,1YKR,2A0C,2A4L,2B52,2B53,2B54,2B55,2BHE,2BHH,2BKZ,2BPM,2BTR,2BTS,2C4G,2C5N,2C5O,2C5V,2C5X,2C5Y,2C68,2C69,2C6I,2C6K,2C6L,2C6M,2C6O,2C6T,2CCH,2CCI,2CJM,2CLX,2DUV,2EXM,2FVD,2G9X,2I40,2J9M,2JGZ,2R3F,2R3G,2R3H,2R3I,2R3J,2R3K,2R3L,2R3M,2R3N,2R3O,2R3P,2R3Q,2R3R,2R64,2UUE,2UZB,2UZD,2UZE,2UZL,2UZN,2UZO,2V0D,2V22,2VTA,2VTH,2VTI,2VTJ,2VTL,2VTM,2VTN,2VTO,2VTP,2VTQ,2VTR,2VTS,2VTT,2VU3,2VV9,2W05,2W06,2W17,2W1H,2WEV,2WFY,2WHB,2WIH,2WIP,2WMA,2WMB,2WPA,2WXV,2X1N,2XMY,2XNB,3BHT,3BHU,3BHV,3DDP,3DDQ,3DOG,3EID,3EJ1,3EOC,3EZR,3EZV,3F5X,3FZ1,3IG7,3IGG,3LE6,3LFN,3LFQ,3LFS,3MY5,3NS9,3PJ8,3PXF,3PXQ,3PXR,3PXY,3PXZ,3PY0,3PY1,3QHR,3QHW,3QL8,3QQF,3QQG,3QQH,3QQJ,3QQK,3QQL,3QRT,3QRU,3QTQ,3QTR,3QTS,3QTU,3QTW,3QTX,3QTZ,3QU0,3QWJ,3QWK,3QX2,3QX4,3QXO,3QXP,3QZF,3QZG,3QZH,3QZI,3R1Q,3R1S,3R1Y,3R28,3R6X,3R71,3R73,3R7E,3R7I,3R7U,3R7V,3R7Y,3R83,3R8L,3R8M,3R8P,3R8U,3R8V,3R8Z,3R9D,3R9H,3R9N,3R9O,3RAH,3RAI,3RAK,3RAL,3RJC,3RK5,3RK7,3RK9,3RKB,3RM6,3RM7,3RMF,3RNI,3ROY,3RPO,3RPR,3RPV,3RPY,3RZB,3S00,3S0O,3S1H,3S2P,3SQQ,3SW4,3SW7,3TI1,3TIY,3TIZ,3TNW,3ULI,3UNJ,3UNK,3WBL,4ACM,4BCK,4BCM,4BCN,4BCO,4BCP,4BCQ,4BGH,4BZD,4CFM,4CFN,4CFU,4CFV,4CFW,4CFX,4D1X,4D1Z,4EK3,4EK4,4EK5,4EK6,4EK8,4EOQ,4EOR,4EOS,4ERW,4EZ3,4EZ7,4FKG,4FKI,4FKJ,4FKL,4FKO,4FKP,4FKQ,4FKR,4FKS,4FKT,4FKU,4FKV,4FKW,4FX3,4GCJ,4I3Z,4II5,4KD1,4LYN,4NJ3,4RJ3,5A14,5AND,5ANE,5ANG,5ANI,5ANJ,5ANK,5ANO,5CYI,5D1J,5FP5,5FP6,5IEV,5IEX,5IEY,5IF1,5JQ5,5JQ8,5K4J,5L2W,5LMK,5MHQ,5NEV,5OO0,5OSJ,5UQ1,5UQ2,5UQ3,6ATH,6GUB,6GUC,6GUE,6GUF,6GUH,6GUK,6GVA,6INL,6JGM,6OQI,6P3W,6Q3B,6Q3C,6Q3F,6Q48,6Q49,6Q4A,6Q4B,6Q4C,6Q4D,6Q4E,6Q4F,6Q4H,6Q4J,6Q4K,6RIJ,6SG4,7ACK,7B5L,7B5R,7B7S,7E34,7KJS,7M2F,7NVQ

> <UniProt (SwissProt) Recommended Name of Target Chain>
Cyclin-dependent kinase 2

> <UniProt (SwissProt) Entry Name of Target Chain>
CDK2_HUMAN

> <UniProt (SwissProt) Primary ID of Target Chain>
P24941

> <UniProt (SwissProt) Secondary ID(s) of Target Chain>
A8K7C6,O75100

> <UniProt (SwissProt) Alternative ID(s) of Target Chain>


> <UniProt (TrEMBL) Submitted Name of Target Chain>


> <UniProt (TrEMBL) Entry Name of Target Chain>


> <UniProt (TrEMBL) Primary ID of Target Chain>
A0A024RB77

> <UniProt (TrEMBL) Secondary ID(s) of Target Chain>


> <UniProt (TrEMBL) Alternative ID(s) of Target Chain>


$$$$
BindingDB_50319624_mol_1

Vconf v2.0 Academic SN VC001-00000579
 36 38  0  0  0  0  0  0  0  0999 V2000
   -4.6690   -4.9250    0.6070 C   0  0  0  0  0  0  0  0  0  0  0
   -4.5480   -6.3220    0.6240 C   0  0  0  0  0  0  0  0  0  0  0
   -3.3260   -6.9000    0.5410 N   0  0  0  0  0  0  0  0  0  0  0
   -2.1970   -6.1610    0.4390 C   0  0  0  0  0  0  0  0  0  0  0
   -2.3070   -4.8100    0.4220 N   0  0  0  0  0  0  0  0  0  0  0
   -3.4940   -4.1590    0.5020 C   0  0  0  0  0  0  0  0  0  0  0
   -1.0030   -6.7910    0.3610 N   0  0  0  0  0  0  0  0  0  0  0
    0.1750   -6.1370    0.2530 C   0  0  0  0  0  0  0  0  0  0  0
    0.6690   -5.7720   -1.0140 C   0  0  0  0  0  0  0  0  0  0  0
    1.8870   -5.0790   -1.1240 C   0  0  0  0  0  0  0  0  0  0  0
    2.6180   -4.7510    0.0320 C   0  0  0  0  0  0  0  0  0  0  0
    2.1290   -5.1200    1.2990 C   0  0  0  0  0  0  0  0  0  0  0
    0.9110   -5.8140    1.4090 C   0  0  0  0  0  0  0  0  0  0  0
   -3.5430   -2.7500    0.4820 C   0  0  0  0  0  0  0  0  0  0  0
   -5.0480   -1.8980    0.5890 S   0  0  0  0  0  0  0  0  0  0  0
   -4.1390   -0.4290    0.4920 C   0  0  0  0  0  0  0  0  0  0  0
   -2.8140   -0.5880    0.3880 N   0  0  0  0  0  0  0  0  0  0  0
   -2.4520   -1.8780    0.3800 C   0  0  0  0  0  0  0  0  0  0  0
   -1.0390   -2.2610    0.2730 C   0  0  0  0  0  0  0  0  0  0  0
   -4.7780    0.8850    0.5230 C   0  0  0  0  0  0  0  0  0  0  0
    3.7800   -4.0870   -0.0730 N   0  0  0  0  0  0  0  0  0  0  0
   -5.5900   -4.4910    0.6710 H   0  0  0  0  0  0  0  0  0  0  0
   -5.3810   -6.9050    0.6990 H   0  0  0  0  0  0  0  0  0  0  0
   -0.9930   -7.7600    0.3850 H   0  0  0  0  0  0  0  0  0  0  0
    0.1410   -6.0040   -1.8560 H   0  0  0  0  0  0  0  0  0  0  0
    2.2370   -4.8150   -2.0450 H   0  0  0  0  0  0  0  0  0  0  0
    2.6550   -4.8840    2.1410 H   0  0  0  0  0  0  0  0  0  0  0
    0.5600   -6.0750    2.3310 H   0  0  0  0  0  0  0  0  0  0  0
   -0.4160   -1.3680    0.2050 H   0  0  0  0  0  0  0  0  0  0  0
   -0.7420   -2.8320    1.1540 H   0  0  0  0  0  0  0  0  0  0  0
   -0.8850   -2.8660   -0.6210 H   0  0  0  0  0  0  0  0  0  0  0
   -4.0250    1.6700    0.4450 H   0  0  0  0  0  0  0  0  0  0  0
   -5.4740    0.9680   -0.3120 H   0  0  0  0  0  0  0  0  0  0  0
   -5.3220    1.0000    1.4600 H   0  0  0  0  0  0  0  0  0  0  0
    4.2810   -3.8560    0.7250 H   0  0  0  0  0  0  0  0  0  0  0
    4.1210   -3.8390   -0.9460 H   0  0  0  0  0  0  0  0  0  0  0
  1  2  1  0  0  0  0
  1  6  2  0  0  0  0
  1 22  1  0  0  0  0
  2  3  2  0  0  0  0
  2 23  1  0  0  0  0
  3  4  1  0  0  0  0
  4  5  2  0  0  0  0
  4  7  1  0  0  0  0
  5  6  1  0  0  0  0
  6 14  1  0  0  0  0
  7  8  1  0  0  0  0
  7 24  1  0  0  0  0
  8  9  1  0  0  0  0
  8 13  2  0  0  0  0
  9 10  2  0  0  0  0
  9 25  1  0  0  0  0
 10 11  1  0  0  0  0
 10 26  1  0  0  0  0
 11 12  2  0  0  0  0
 11 21  1  0  0  0  0
 12 13  1  0  0  0  0
 12 27  1  0  0  0  0
 13 28  1  0  0  0  0
 14 15  1  0  0  0  0
 14 18  2  0  0  0  0
 15 16  1  0  0  0  0
 16 17  2  0  0  0  0
 16 20  1  0  0  0  0
 17 18  1  0  0  0  0
 18 19  1  0  0  0  0
 19 29  1  0  0  0  0
 19 30  1  0  0  0  0
 19 31  1  0  0  0  0
 20 32  1  0  0  0  0
 20 33  1  0  0  0  0
 20 34  1  0  0  0  0
 21 35  1  0  0  0  0
 21 36  1  0  0  0  0
M  END
> <From>
www.bindingDB.org

> <BindingDB Reactant_set_id>
50579850

> <Ligand InChI>
InChI=1S/C15H15N5S/c1-9-14(21-10(2)18-9)13-7-8-17-15(20-13)19-12-5-3-11(16)4-6-12/h3-8H,16H2,1-2H3,(H,17,19,20)

> <Ligand InChI Key>
DGGKOQYFPRMYAH-UHFFFAOYSA-N

> <BindingDB MonomerID>
50319624

> <BindingDB Ligand Name>
Aminopyrimidine, 4::CHEMBL1084454::N1-(4-(2,4-Dimethylthiazol-5-yl)pyrimidin-2-yl)benzene-1,4-diamine

> <Target Name Assigned by Curator or DataSource>
Cyclin-dependent kinase 2

> <Target Source Organism According to Curator or DataSource>
Homo sapiens

> <Ki (nM)>
 168

> <IC50 (nM)>


> <Kd (nM)>


> <EC50 (nM)>


> <kon (M-1-s-1)>


> <koff (s-1)>


> <pH>


> <Temp C>


> <Curation/DataSource>
ChEMBL

> <Article DOI>
10.1021/jm901913s

> <PMID>
20462263

> <PubChem AID>


> <Patent Number>


> <Authors>
Wang, S; Midgley, CA; Scaerou, F; Grabarek, JB; Griffiths, G; Jackson, W; Kontopidis, G; McClue, SJ; McInnes, C; Meades, C; Mezna, M; Plater, A; Stuart, I; Thomas, MP; Wood, G; Clarke, RG; Blake, DG; Zheleva, DI; Lane, DP; Jackson, RC; Glover, DM; Fischer, PM

> <Institution>
Cyclacel Ltd

> <Link to Ligand in BindingDB>
http://www.bindingdb.org/bind/chemsearch/marvin/MolStructure.jsp?monomerid=50319624

> <Link to Ligand-Target Pair in BindingDB>
http://www.bindingdb.org/jsp/dbsearch/PrimarySearch_ki.jsp?energyterm=kJ/mole&tag=pol&polymerid=796&target=Cyclin-dependent+kinase+2&column=ki&startPg=0&Increment=50&submit=Search

> <Link to Ligand-Target Pair in BindingDB>
http://www.bindingdb.org/jsp/dbsearch/PrimarySearch_ki.jsp?energyterm=kJ/mole&tag=r21&monomerid=50319624&enzyme=Cyclin-dependent+kinase+2&column=ki&startPg=0&Increment=50&submit=Search

> <Ligand HET ID in PDB>


> <PDB ID(s) for Ligand-Target Complex>


> <PubChem CID>
46830767

> <PubChem SID>
104153985

> <ChEBI ID of Ligand>


> <ChEMBL ID of Ligand>
CHEMBL1084454

> <DrugBank ID of Ligand>


> <IUPHAR_GRAC ID of Ligand>


> <KEGG ID of Ligand>


> <ZINC ID of Ligand>
ZINC49048774

> <Number of Protein Chains in Target (bigger than 1 implies a multichain complex)>
1

> <BindingDB Target Chain Sequence>
MENFQKVEKIGEGTYGVVYKARNKLTGEVVALKKIRLDTETEGVPSTAIREISLLKELNHPNIVKLLDVIHTENKLYLVFEFLHQDLKKFMDASALTGIPLPLIKSYLFQLLQGLAFCHSHRVLHRDLKPQNLLINTEGAIKLADFGLARAFGVPVRTYTHEVVTLWYRAPEILLGCKYYSTAVDIWSLGCIFAEMVTRRALFPGDSEIDQLFRIFRTLGTPDEVVWPGVTSMPDYKPSFPKWARQDFSKVVPPLDEDGRSLLSQMLHYDPNKRISAKAALAHPFFQDVTKPVPHLRL

> <PDB ID(s) of Target Chain>
1CKP,1DI8,1DM2,1E1V,1E1X,1E9H,1F5Q,1FIN,1FQ1,1FVT,1FVV,1G5S,1GIH,1GY3,1GZ8,1H00,1H01,1H07,1H08,1H0V,1H0W,1H1P,1H1Q,1H1R,1H1S,1H24,1H25,1H26,1H27,1H28,1HCK,1HCL,1JST,1JSU,1JSV,1JVP,1KE5,1KE6,1KE7,1KE8,1KE9,1OGU,1OI9,1OIQ,1OIR,1OIU,1OIY,1OKV,1OKW,1OL1,1OL2,1P2A,1P5E,1PF8,1PKD,1PW2,1PXI,1PXJ,1PXK,1PXL,1PXM,1PXN,1PXO,1PXP,1PYE,1QMZ,1R78,1URC,1URW,1V1K,1VYW,1VYZ,1W0X,1W8C,1W98,1WCC,1Y8Y,1Y91,1YKR,2A0C,2A4L,2B52,2B53,2B54,2B55,2BHE,2BHH,2BKZ,2BPM,2BTR,2BTS,2C4G,2C5N,2C5O,2C5V,2C5X,2C5Y,2C68,2C69,2C6I,2C6K,2C6L,2C6M,2C6O,2C6T,2CCH,2CCI,2CJM,2CLX,2DUV,2EXM,2FVD,2G9X,2I40,2J9M,2JGZ,2R3F,2R3G,2R3H,2R3I,2R3J,2R3K,2R3L,2R3M,2R3N,2R3O,2R3P,2R3Q,2R3R,2R64,2UUE,2UZB,2UZD,2UZE,2UZL,2UZN,2UZO,2V0D,2V22,2VTA,2VTH,2VTI,2VTJ,2VTL,2VTM,2VTN,2VTO,2VTP,2VTQ,2VTR,2VTS,2VTT,2VU3,2VV9,2W05,2W06,2W17,2W1H,2WEV,2WFY,2WHB,2WIH,2WIP,2WMA,2WMB,2WPA,2WXV,2X1N,2XMY,2XNB,3BHT,3BHU,3BHV,3DDP,3DDQ,3DOG,3EID,3EJ1,3EOC,3EZR,3EZV,3F5X,3FZ1,3IG7,3IGG,3LE6,3LFN,3LFQ,3LFS,3MY5,3NS9,3PJ8,3PXF,3PXQ,3PXR,3PXY,3PXZ,3PY0,3PY1,3QHR,3QHW,3QL8,3QQF,3QQG,3QQH,3QQJ,3QQK,3QQL,3QRT,3QRU,3QTQ,3QTR,3QTS,3QTU,3QTW,3QTX,3QTZ,3QU0,3QWJ,3QWK,3QX2,3QX4,3QXO,3QXP,3QZF,3QZG,3QZH,3QZI,3R1Q,3R1S,3R1Y,3R28,3R6X,3R71,3R73,3R7E,3R7I,3R7U,3R7V,3R7Y,3R83,3R8L,3R8M,3R8P,3R8U,3R8V,3R8Z,3R9D,3R9H,3R9N,3R9O,3RAH,3RAI,3RAK,3RAL,3RJC,3RK5,3RK7,3RK9,3RKB,3RM6,3RM7,3RMF,3RNI,3ROY,3RPO,3RPR,3RPV,3RPY,3RZB,3S00,3S0O,3S1H,3S2P,3SQQ,3SW4,3SW7,3TI1,3TIY,3TIZ,3TNW,3ULI,3UNJ,3UNK,3WBL,4ACM,4BCK,4BCM,4BCN,4BCO,4BCP,4BCQ,4BGH,4BZD,4CFM,4CFN,4CFU,4CFV,4CFW,4CFX,4D1X,4D1Z,4EK3,4EK4,4EK5,4EK6,4EK8,4EOQ,4EOR,4EOS,4ERW,4EZ3,4EZ7,4FKG,4FKI,4FKJ,4FKL,4FKO,4FKP,4FKQ,4FKR,4FKS,4FKT,4FKU,4FKV,4FKW,4FX3,4GCJ,4I3Z,4II5,4KD1,4LYN,4NJ3,4RJ3,5A14,5AND,5ANE,5ANG,5ANI,5ANJ,5ANK,5ANO,5CYI,5D1J,5FP5,5FP6,5IEV,5IEX,5IEY,5IF1,5JQ5,5JQ8,5K4J,5L2W,5LMK,5MHQ,5NEV,5OO0,5OSJ,5UQ1,5UQ2,5UQ3,6ATH,6GUB,6GUC,6GUE,6GUF,6GUH,6GUK,6GVA,6INL,6JGM,6OQI,6P3W,6Q3B,6Q3C,6Q3F,6Q48,6Q49,6Q4A,6Q4B,6Q4C,6Q4D,6Q4E,6Q4F,6Q4H,6Q4J,6Q4K,6RIJ,6SG4,7ACK,7B5L,7B5R,7B7S,7E34,7KJS,7M2F,7NVQ

> <UniProt (SwissProt) Recommended Name of Target Chain>
Cyclin-dependent kinase 2

> <UniProt (SwissProt) Entry Name of Target Chain>
CDK2_HUMAN

> <UniProt (SwissProt) Primary ID of Target Chain>
P24941

> <UniProt (SwissProt) Secondary ID(s) of Target Chain>
A8K7C6,O75100

> <UniProt (SwissProt) Alternative ID(s) of Target Chain>


> <UniProt (TrEMBL) Submitted Name of Target Chain>


> <UniProt (TrEMBL) Entry Name of Target Chain>


> <UniProt (TrEMBL) Primary ID of Target Chain>
A0A024RB77

> <UniProt (TrEMBL) Secondary ID(s) of Target Chain>


> <UniProt (TrEMBL) Alternative ID(s) of Target Chain>


$$$$
Flavopiridol

Vconf v2.0 Academic SN VC001-00000579
 48 51  0  0  0  0  0  0  0  0999 V2000
    0.4340    2.5550    0.5140 C   0  0  0  0  0  0  0  0  0  0  0
    1.5840    1.8910    0.7570 C   0  0  0  0  0  0  0  0  0  0  0
    2.5380    2.4450    1.5200 C   0  0  0  0  0  0  0  0  0  0  0
    0.2100    3.8280    1.0290 C   0  0  0  0  0  0  0  0  0  0  0
    1.2340    4.3940    1.8270 C   0  0  0  0  0  0  0  0  0  0  0
    1.0980    5.6810    2.3990 C   0  0  0  0  0  0  0  0  0  0  0
   -1.1160    5.8460    1.3620 C   0  0  0  0  0  0  0  0  0  0  0
   -0.9690    4.5690    0.8000 C   0  0  0  0  0  0  0  0  0  0  0
   -0.0960    6.3970    2.1520 C   0  0  0  0  0  0  0  0  0  0  0
   -0.2820    7.6350    2.6670 O   0  0  0  0  0  0  0  0  0  0  0
   -1.9780    4.0790    0.0440 O   0  0  0  0  0  0  0  0  0  0  0
   -0.3980    1.9840   -0.1760 O   0  0  0  0  0  0  0  0  0  0  0
    2.3690    3.6630    2.0480 O   0  0  0  0  0  0  0  0  0  0  0
    3.7260    1.7990    1.7800 C   0  0  0  0  0  0  0  0  0  0  0
    6.1190    1.6170    1.3200 C   0  0  0  0  0  0  0  0  0  0  0
    4.8770    2.2310    1.0890 C   0  0  0  0  0  0  0  0  0  0  0
    3.8320    0.7470    2.7230 C   0  0  0  0  0  0  0  0  0  0  0
    5.0830    0.1370    2.9470 C   0  0  0  0  0  0  0  0  0  0  0
    6.2210    0.5690    2.2470 C   0  0  0  0  0  0  0  0  0  0  0
    2.5020    0.1930    3.6200 Cl  0  0  0  0  0  0  0  0  0  0  0
    2.1660    6.2940    3.2420 C   0  0  2  0  0  0  0  0  0  0  0
    4.3970    7.4380    3.3810 C   0  0  0  0  0  0  0  0  0  0  0
    3.4170    6.7170    2.4390 C   0  0  1  0  0  0  0  0  0  0  0
    2.5870    5.4220    4.4430 C   0  0  0  0  0  0  0  0  0  0  0
    3.5960    6.1930    5.3080 C   0  0  0  0  0  0  0  0  0  0  0
    4.7810    6.5610    4.5070 N   0  0  0  0  0  0  0  0  0  0  0
    5.7650    7.2490    5.3620 C   0  0  0  0  0  0  0  0  0  0  0
    4.0940    5.6130    1.8500 O   0  0  0  0  0  0  0  0  0  0  0
    1.7170    0.9880    0.3650 H   0  0  0  0  0  0  0  0  0  0  0
   -1.9710    6.3780    1.1940 H   0  0  0  0  0  0  0  0  0  0  0
   -1.1420    8.0480    2.4420 H   0  0  0  0  0  0  0  0  0  0  0
   -2.7500    4.6750   -0.0510 H   0  0  0  0  0  0  0  0  0  0  0
    6.9470    1.9340    0.8140 H   0  0  0  0  0  0  0  0  0  0  0
    4.8160    2.9960    0.4150 H   0  0  0  0  0  0  0  0  0  0  0
    5.1760   -0.6230    3.6230 H   0  0  0  0  0  0  0  0  0  0  0
    7.1230    0.1230    2.4160 H   0  0  0  0  0  0  0  0  0  0  0
    1.7750    7.2150    3.6770 H   0  0  0  0  0  0  0  0  0  0  0
    3.9280    8.3490    3.7580 H   0  0  0  0  0  0  0  0  0  0  0
    5.2870    7.7120    2.8130 H   0  0  0  0  0  0  0  0  0  0  0
    3.1230    7.4080    1.6480 H   0  0  0  0  0  0  0  0  0  0  0
    1.7130    5.1750    5.0480 H   0  0  0  0  0  0  0  0  0  0  0
    3.0630    4.5000    4.1090 H   0  0  0  0  0  0  0  0  0  0  0
    3.1180    7.0880    5.7110 H   0  0  0  0  0  0  0  0  0  0  0
    3.9010    5.5520    6.1370 H   0  0  0  0  0  0  0  0  0  0  0
    6.0660    6.5900    6.1780 H   0  0  0  0  0  0  0  0  0  0  0
    6.6480    7.5030    4.7760 H   0  0  0  0  0  0  0  0  0  0  0
    5.3370    8.1620    5.7790 H   0  0  0  0  0  0  0  0  0  0  0
    4.9100    5.8500    1.3640 H   0  0  0  0  0  0  0  0  0  0  0
  1  2  1  0  0  0  0
  1  4  1  0  0  0  0
  1 12  2  0  0  0  0
  2  3  2  0  0  0  0
  2 29  1  0  0  0  0
  3 13  1  0  0  0  0
  3 14  1  0  0  0  0
  4  5  1  0  0  0  0
  4  8  2  0  0  0  0
  5  6  2  0  0  0  0
  5 13  1  0  0  0  0
  6  9  1  0  0  0  0
 21  6  1  6  0  0  0
  7  8  1  0  0  0  0
  7  9  2  0  0  0  0
  7 30  1  0  0  0  0
  8 11  1  0  0  0  0
  9 10  1  0  0  0  0
 10 31  1  0  0  0  0
 11 32  1  0  0  0  0
 14 16  2  0  0  0  0
 14 17  1  0  0  0  0
 15 16  1  0  0  0  0
 15 19  2  0  0  0  0
 15 33  1  0  0  0  0
 16 34  1  0  0  0  0
 17 18  2  0  0  0  0
 17 20  1  0  0  0  0
 18 19  1  0  0  0  0
 18 35  1  0  0  0  0
 19 36  1  0  0  0  0
 21 23  1  0  0  0  0
 21 24  1  0  0  0  0
 21 37  1  0  0  0  0
 22 23  1  0  0  0  0
 22 26  1  0  0  0  0
 22 38  1  0  0  0  0
 22 39  1  0  0  0  0
 23 28  1  6  0  0  0
 23 40  1  0  0  0  0
 24 25  1  0  0  0  0
 24 41  1  0  0  0  0
 24 42  1  0  0  0  0
 25 26  1  0  0  0  0
 25 43  1  0  0  0  0
 25 44  1  0  0  0  0
 26 27  1  0  0  0  0
 27 45  1  0  0  0  0
 27 46  1  0  0  0  0
 27 47  1  0  0  0  0
 28 48  1  0  0  0  0
M  END
> <From>
www.bindingDB.org

> <BindingDB Reactant_set_id>
51041254

> <Ligand InChI>
InChI=1S/C21H20ClNO5/c1-23-7-6-12(17(27)10-23)19-14(24)8-15(25)20-16(26)9-18(28-21(19)20)11-4-2-3-5-13(11)22/h2-5,8-9,12,17,24-25,27H,6-7,10H2,1H3/t12-,17+/m0/s1

> <Ligand InChI Key>
BIIVYFLTOXDAOV-YVEFUNNKSA-N

> <BindingDB MonomerID>
5655

> <BindingDB Ligand Name>
2-(2-chlorophenyl)-5,7-dihydroxy-8-[(3S,4R)-3-hydroxy-1-methylpiperidin-4-yl]-4H-chromen-4-one::CHEMBL428690::Flavopiridol::US10294218, Example Flavopiridol::US9617225, Flavopiridol

> <Target Name Assigned by Curator or DataSource>
Cyclin-dependent kinase 2

> <Target Source Organism According to Curator or DataSource>
Homo sapiens

> <Ki (nM)>
 190

> <IC50 (nM)>


> <Kd (nM)>


> <EC50 (nM)>


> <kon (M-1-s-1)>


> <koff (s-1)>


> <pH>


> <Temp C>


> <Curation/DataSource>
ChEMBL

> <Article DOI>
10.1021/jm301495v

> <PMID>
23252711

> <PubChem AID>


> <Patent Number>


> <Authors>
Hole, AJ; Baumli, S; Shao, H; Shi, S; Huang, S; Pepper, C; Fischer, PM; Wang, S; Endicott, JA; Noble, ME

> <Institution>
University of Oxford

> <Link to Ligand in BindingDB>
http://www.bindingdb.org/bind/chemsearch/marvin/MolStructure.jsp?monomerid=5655

> <Link to Ligand-Target Pair in BindingDB>
http://www.bindingdb.org/jsp/dbsearch/PrimarySearch_ki.jsp?energyterm=kJ/mole&tag=pol&polymerid=796&target=Cyclin-dependent+kinase+2&column=ki&startPg=0&Increment=50&submit=Search

> <Link to Ligand-Target Pair in BindingDB>
http://www.bindingdb.org/jsp/dbsearch/PrimarySearch_ki.jsp?energyterm=kJ/mole&tag=r21&monomerid=5655&enzyme=Cyclin-dependent+kinase+2&column=ki&startPg=0&Increment=50&submit=Search

> <Ligand HET ID in PDB>
CPB

> <PDB ID(s) for Ligand-Target Complex>
3BLR,3EBP,4O71,1C8K,1E1Y

> <PubChem CID>
5287969

> <PubChem SID>
8035270

> <ChEBI ID of Ligand>


> <ChEMBL ID of Ligand>
CHEMBL428690

> <DrugBank ID of Ligand>
DB03496

> <IUPHAR_GRAC ID of Ligand>
5680

> <KEGG ID of Ligand>


> <ZINC ID of Ligand>
ZINC21288966

> <Number of Protein Chains in Target (bigger than 1 implies a multichain complex)>
1

> <BindingDB Target Chain Sequence>
MENFQKVEKIGEGTYGVVYKARNKLTGEVVALKKIRLDTETEGVPSTAIREISLLKELNHPNIVKLLDVIHTENKLYLVFEFLHQDLKKFMDASALTGIPLPLIKSYLFQLLQGLAFCHSHRVLHRDLKPQNLLINTEGAIKLADFGLARAFGVPVRTYTHEVVTLWYRAPEILLGCKYYSTAVDIWSLGCIFAEMVTRRALFPGDSEIDQLFRIFRTLGTPDEVVWPGVTSMPDYKPSFPKWARQDFSKVVPPLDEDGRSLLSQMLHYDPNKRISAKAALAHPFFQDVTKPVPHLRL

> <PDB ID(s) of Target Chain>
1CKP,1DI8,1DM2,1E1V,1E1X,1E9H,1F5Q,1FIN,1FQ1,1FVT,1FVV,1G5S,1GIH,1GY3,1GZ8,1H00,1H01,1H07,1H08,1H0V,1H0W,1H1P,1H1Q,1H1R,1H1S,1H24,1H25,1H26,1H27,1H28,1HCK,1HCL,1JST,1JSU,1JSV,1JVP,1KE5,1KE6,1KE7,1KE8,1KE9,1OGU,1OI9,1OIQ,1OIR,1OIU,1OIY,1OKV,1OKW,1OL1,1OL2,1P2A,1P5E,1PF8,1PKD,1PW2,1PXI,1PXJ,1PXK,1PXL,1PXM,1PXN,1PXO,1PXP,1PYE,1QMZ,1R78,1URC,1URW,1V1K,1VYW,1VYZ,1W0X,1W8C,1W98,1WCC,1Y8Y,1Y91,1YKR,2A0C,2A4L,2B52,2B53,2B54,2B55,2BHE,2BHH,2BKZ,2BPM,2BTR,2BTS,2C4G,2C5N,2C5O,2C5V,2C5X,2C5Y,2C68,2C69,2C6I,2C6K,2C6L,2C6M,2C6O,2C6T,2CCH,2CCI,2CJM,2CLX,2DUV,2EXM,2FVD,2G9X,2I40,2J9M,2JGZ,2R3F,2R3G,2R3H,2R3I,2R3J,2R3K,2R3L,2R3M,2R3N,2R3O,2R3P,2R3Q,2R3R,2R64,2UUE,2UZB,2UZD,2UZE,2UZL,2UZN,2UZO,2V0D,2V22,2VTA,2VTH,2VTI,2VTJ,2VTL,2VTM,2VTN,2VTO,2VTP,2VTQ,2VTR,2VTS,2VTT,2VU3,2VV9,2W05,2W06,2W17,2W1H,2WEV,2WFY,2WHB,2WIH,2WIP,2WMA,2WMB,2WPA,2WXV,2X1N,2XMY,2XNB,3BHT,3BHU,3BHV,3DDP,3DDQ,3DOG,3EID,3EJ1,3EOC,3EZR,3EZV,3F5X,3FZ1,3IG7,3IGG,3LE6,3LFN,3LFQ,3LFS,3MY5,3NS9,3PJ8,3PXF,3PXQ,3PXR,3PXY,3PXZ,3PY0,3PY1,3QHR,3QHW,3QL8,3QQF,3QQG,3QQH,3QQJ,3QQK,3QQL,3QRT,3QRU,3QTQ,3QTR,3QTS,3QTU,3QTW,3QTX,3QTZ,3QU0,3QWJ,3QWK,3QX2,3QX4,3QXO,3QXP,3QZF,3QZG,3QZH,3QZI,3R1Q,3R1S,3R1Y,3R28,3R6X,3R71,3R73,3R7E,3R7I,3R7U,3R7V,3R7Y,3R83,3R8L,3R8M,3R8P,3R8U,3R8V,3R8Z,3R9D,3R9H,3R9N,3R9O,3RAH,3RAI,3RAK,3RAL,3RJC,3RK5,3RK7,3RK9,3RKB,3RM6,3RM7,3RMF,3RNI,3ROY,3RPO,3RPR,3RPV,3RPY,3RZB,3S00,3S0O,3S1H,3S2P,3SQQ,3SW4,3SW7,3TI1,3TIY,3TIZ,3TNW,3ULI,3UNJ,3UNK,3WBL,4ACM,4BCK,4BCM,4BCN,4BCO,4BCP,4BCQ,4BGH,4BZD,4CFM,4CFN,4CFU,4CFV,4CFW,4CFX,4D1X,4D1Z,4EK3,4EK4,4EK5,4EK6,4EK8,4EOQ,4EOR,4EOS,4ERW,4EZ3,4EZ7,4FKG,4FKI,4FKJ,4FKL,4FKO,4FKP,4FKQ,4FKR,4FKS,4FKT,4FKU,4FKV,4FKW,4FX3,4GCJ,4I3Z,4II5,4KD1,4LYN,4NJ3,4RJ3,5A14,5AND,5ANE,5ANG,5ANI,5ANJ,5ANK,5ANO,5CYI,5D1J,5FP5,5FP6,5IEV,5IEX,5IEY,5IF1,5JQ5,5JQ8,5K4J,5L2W,5LMK,5MHQ,5NEV,5OO0,5OSJ,5UQ1,5UQ2,5UQ3,6ATH,6GUB,6GUC,6GUE,6GUF,6GUH,6GUK,6GVA,6INL,6JGM,6OQI,6P3W,6Q3B,6Q3C,6Q3F,6Q48,6Q49,6Q4A,6Q4B,6Q4C,6Q4D,6Q4E,6Q4F,6Q4H,6Q4J,6Q4K,6RIJ,6SG4,7ACK,7B5L,7B5R,7B7S,7E34,7KJS,7M2F,7NVQ

> <UniProt (SwissProt) Recommended Name of Target Chain>
Cyclin-dependent kinase 2

> <UniProt (SwissProt) Entry Name of Target Chain>
CDK2_HUMAN

> <UniProt (SwissProt) Primary ID of Target Chain>
P24941

> <UniProt (SwissProt) Secondary ID(s) of Target Chain>
A8K7C6,O75100

> <UniProt (SwissProt) Alternative ID(s) of Target Chain>


> <UniProt (TrEMBL) Submitted Name of Target Chain>


> <UniProt (TrEMBL) Entry Name of Target Chain>


> <UniProt (TrEMBL) Primary ID of Target Chain>
A0A024RB77

> <UniProt (TrEMBL) Secondary ID(s) of Target Chain>


> <UniProt (TrEMBL) Alternative ID(s) of Target Chain>


$$$$
BindingDB_50444938_mol_1

Vconf v2.0 Academic SN VC001-00000579
 57 60  0  0  0  0  0  0  0  0999 V2000
   14.5730  -10.5240    0.4010 C   0  0  0  0  0  0  0  0  0  0  0
   14.6830  -11.7360   -0.3190 C   0  0  0  0  0  0  0  0  0  0  0
   15.1560  -12.9060    0.2940 C   0  0  0  0  0  0  0  0  0  0  0
   14.9480  -10.5300    1.7670 C   0  0  0  0  0  0  0  0  0  0  0
   15.4140  -11.7000    2.4120 C   0  0  0  0  0  0  0  0  0  0  0
   15.5240  -12.8890    1.6470 C   0  0  0  0  0  0  0  0  0  0  0
   15.9940  -14.0230    2.2190 N   0  0  0  0  0  0  0  0  0  0  0
   16.3790  -14.1070    3.5180 C   0  0  0  0  0  0  0  0  0  0  0
   16.2820  -12.9550    4.3210 C   0  0  0  0  0  0  0  0  0  0  0
   15.7950  -11.7470    3.7790 C   0  0  0  0  0  0  0  0  0  0  0
   14.1010   -9.3320   -0.2310 C   0  0  0  0  0  0  0  0  0  0  0
   15.7090  -10.6580    4.6230 C   0  0  0  0  0  0  0  0  0  0  0
   14.6920   -9.9860    4.6950 O   0  0  0  0  0  0  0  0  0  0  0
   16.7040  -10.3490    5.4350 O   0  0  0  0  0  0  0  0  0  0  0
   16.8620  -15.3330    4.0160 C   0  0  0  0  0  0  0  0  0  0  0
   17.0340  -16.3740    3.1680 N   0  0  0  0  0  0  0  0  0  0  0
   17.1380  -15.4770    5.2290 O   0  0  0  0  0  0  0  0  0  0  0
   17.5180  -17.6580    3.5600 C   0  0  2  0  0  0  0  0  0  0  0
   18.8910  -17.5870    4.0020 C   0  0  0  0  0  0  0  0  0  0  0
   17.4200  -18.6310    2.3630 C   0  0  0  0  0  0  0  0  0  0  0
   16.0320  -18.8220    1.8920 C   0  0  0  0  0  0  0  0  0  0  0
   19.8130  -17.0880    3.1790 O   0  0  0  0  0  0  0  0  0  0  0
   19.1860  -17.9940    5.1170 O   0  0  0  0  0  0  0  0  0  0  0
   21.1640  -16.9670    3.6250 C   0  0  0  0  0  0  0  0  0  0  0
   15.6400  -18.3800    0.6120 C   0  0  0  0  0  0  0  0  0  0  0
   14.3190  -18.5610    0.1690 C   0  0  0  0  0  0  0  0  0  0  0
   13.3780  -19.1900    1.0020 C   0  0  0  0  0  0  0  0  0  0  0
   13.7600  -19.6360    2.2780 C   0  0  0  0  0  0  0  0  0  0  0
   15.0820  -19.4530    2.7200 C   0  0  0  0  0  0  0  0  0  0  0
   12.1090  -19.3630    0.5700 O   0  0  0  0  0  0  0  0  0  0  0
   14.4030   -9.0530   -1.5860 C   0  0  0  0  0  0  0  0  0  0  0
   13.9430   -7.8790   -2.2110 C   0  0  0  0  0  0  0  0  0  0  0
   13.1690   -6.9580   -1.4850 C   0  0  0  0  0  0  0  0  0  0  0
   12.8540   -7.2120   -0.1390 C   0  0  0  0  0  0  0  0  0  0  0
   13.3170   -8.3890    0.4780 C   0  0  0  0  0  0  0  0  0  0  0
   11.9190   -6.1050    0.7340 Cl  0  0  0  0  0  0  0  0  0  0  0
   14.3240   -7.5730   -3.8310 Cl  0  0  0  0  0  0  0  0  0  0  0
   14.4110  -11.7820   -1.3030 H   0  0  0  0  0  0  0  0  0  0  0
   15.2320  -13.7680   -0.2470 H   0  0  0  0  0  0  0  0  0  0  0
   14.8940   -9.6600    2.2970 H   0  0  0  0  0  0  0  0  0  0  0
   16.5630  -12.9950    5.3030 H   0  0  0  0  0  0  0  0  0  0  0
   16.5180   -9.5770    6.0070 H   0  0  0  0  0  0  0  0  0  0  0
   16.7950  -16.2380    2.2380 H   0  0  0  0  0  0  0  0  0  0  0
   16.9020  -18.0400    4.3780 H   0  0  0  0  0  0  0  0  0  0  0
   18.0430  -18.2470    1.5520 H   0  0  0  0  0  0  0  0  0  0  0
   17.8210  -19.6030    2.6600 H   0  0  0  0  0  0  0  0  0  0  0
   21.7670  -16.5390    2.8250 H   0  0  0  0  0  0  0  0  0  0  0
   21.2110  -16.3120    4.4970 H   0  0  0  0  0  0  0  0  0  0  0
   21.5610  -17.9490    3.8860 H   0  0  0  0  0  0  0  0  0  0  0
   16.3160  -17.9230   -0.0010 H   0  0  0  0  0  0  0  0  0  0  0
   14.0430  -18.2370   -0.7580 H   0  0  0  0  0  0  0  0  0  0  0
   13.0810  -20.0950    2.8850 H   0  0  0  0  0  0  0  0  0  0  0
   15.3520  -19.7820    3.6480 H   0  0  0  0  0  0  0  0  0  0  0
   11.5170  -19.8110    1.2090 H   0  0  0  0  0  0  0  0  0  0  0
   14.9770   -9.7060   -2.1240 H   0  0  0  0  0  0  0  0  0  0  0
   12.8340   -6.1040   -1.9360 H   0  0  0  0  0  0  0  0  0  0  0
   13.0690   -8.5650    1.4540 H   0  0  0  0  0  0  0  0  0  0  0
  1  2  2  0  0  0  0
  1  4  1  0  0  0  0
  1 11  1  0  0  0  0
  2  3  1  0  0  0  0
  2 38  1  0  0  0  0
  3  6  2  0  0  0  0
  3 39  1  0  0  0  0
  4  5  2  0  0  0  0
  4 40  1  0  0  0  0
  5  6  1  0  0  0  0
  5 10  1  0  0  0  0
  6  7  1  0  0  0  0
  7  8  2  0  0  0  0
  8  9  1  0  0  0  0
  8 15  1  0  0  0  0
  9 10  2  0  0  0  0
  9 41  1  0  0  0  0
 10 12  1  0  0  0  0
 11 31  2  0  0  0  0
 11 35  1  0  0  0  0
 12 13  2  0  0  0  0
 12 14  1  0  0  0  0
 14 42  1  0  0  0  0
 15 16  1  0  0  0  0
 15 17  2  0  0  0  0
 18 16  1  1  0  0  0
 16 43  1  0  0  0  0
 18 19  1  0  0  0  0
 18 20  1  0  0  0  0
 18 44  1  0  0  0  0
 19 22  1  0  0  0  0
 19 23  2  0  0  0  0
 20 21  1  0  0  0  0
 20 45  1  0  0  0  0
 20 46  1  0  0  0  0
 21 25  2  0  0  0  0
 21 29  1  0  0  0  0
 22 24  1  0  0  0  0
 24 47  1  0  0  0  0
 24 48  1  0  0  0  0
 24 49  1  0  0  0  0
 25 26  1  0  0  0  0
 25 50  1  0  0  0  0
 26 27  2  0  0  0  0
 26 51  1  0  0  0  0
 27 28  1  0  0  0  0
 27 30  1  0  0  0  0
 28 29  2  0  0  0  0
 28 52  1  0  0  0  0
 29 53  1  0  0  0  0
 30 54  1  0  0  0  0
 31 32  1  0  0  0  0
 31 55  1  0  0  0  0
 32 33  2  0  0  0  0
 32 37  1  0  0  0  0
 33 34  1  0  0  0  0
 33 56  1  0  0  0  0
 34 35  2  0  0  0  0
 34 36  1  0  0  0  0
 35 57  1  0  0  0  0
M  END
> <From>
www.bindingDB.org

> <BindingDB Reactant_set_id>
51087231

> <Ligand InChI>
InChI=1S/C27H20Cl2N2O6/c1-37-27(36)24(8-14-2-5-19(32)6-3-14)31-25(33)23-13-21(26(34)35)20-11-15(4-7-22(20)30-23)16-9-17(28)12-18(29)10-16/h2-7,9-13,24,32H,8H2,1H3,(H,31,33)(H,34,35)/t24-/m0/s1

> <Ligand InChI Key>
YSZUSIJTIYHTRR-DEOSSOPVSA-N

> <BindingDB MonomerID>
50444938

> <BindingDB Ligand Name>
CHEMBL3099758

> <Target Name Assigned by Curator or DataSource>
Cyclin-dependent kinase 2

> <Target Source Organism According to Curator or DataSource>
Homo sapiens

> <Ki (nM)>
 200

> <IC50 (nM)>


> <Kd (nM)>


> <EC50 (nM)>


> <kon (M-1-s-1)>


> <koff (s-1)>


> <pH>


> <Temp C>


> <Curation/DataSource>
ChEMBL

> <Article DOI>
10.1016/j.bmcl.2013.11.041

> <PMID>
24332088

> <PubChem AID>


> <Patent Number>


> <Authors>
Deng, Y; Shipps, GW; Zhao, L; Siddiqui, MA; Popovici-Muller, J; Curran, PJ; Duca, JS; Hruza, AW; Fischmann, TO; Madison, VS; Zhang, R; McNemar, CW; Mayhood, TW; Syto, R; Annis, A; Kirschmeier, P; Lees, EM; Parry, DA; Windsor, WT

> <Institution>
Merck Research Laboratories

> <Link to Ligand in BindingDB>
http://www.bindingdb.org/bind/chemsearch/marvin/MolStructure.jsp?monomerid=50444938

> <Link to Ligand-Target Pair in BindingDB>
http://www.bindingdb.org/jsp/dbsearch/PrimarySearch_ki.jsp?energyterm=kJ/mole&tag=pol&polymerid=796&target=Cyclin-dependent+kinase+2&column=ki&startPg=0&Increment=50&submit=Search

> <Link to Ligand-Target Pair in BindingDB>
http://www.bindingdb.org/jsp/dbsearch/PrimarySearch_ki.jsp?energyterm=kJ/mole&tag=r21&monomerid=50444938&enzyme=Cyclin-dependent+kinase+2&column=ki&startPg=0&Increment=50&submit=Search

> <Ligand HET ID in PDB>


> <PDB ID(s) for Ligand-Target Complex>


> <PubChem CID>
25026174

> <PubChem SID>
194942834

> <ChEBI ID of Ligand>


> <ChEMBL ID of Ligand>
CHEMBL3099758

> <DrugBank ID of Ligand>


> <IUPHAR_GRAC ID of Ligand>


> <KEGG ID of Ligand>


> <ZINC ID of Ligand>


> <Number of Protein Chains in Target (bigger than 1 implies a multichain complex)>
1

> <BindingDB Target Chain Sequence>
MENFQKVEKIGEGTYGVVYKARNKLTGEVVALKKIRLDTETEGVPSTAIREISLLKELNHPNIVKLLDVIHTENKLYLVFEFLHQDLKKFMDASALTGIPLPLIKSYLFQLLQGLAFCHSHRVLHRDLKPQNLLINTEGAIKLADFGLARAFGVPVRTYTHEVVTLWYRAPEILLGCKYYSTAVDIWSLGCIFAEMVTRRALFPGDSEIDQLFRIFRTLGTPDEVVWPGVTSMPDYKPSFPKWARQDFSKVVPPLDEDGRSLLSQMLHYDPNKRISAKAALAHPFFQDVTKPVPHLRL

> <PDB ID(s) of Target Chain>
1CKP,1DI8,1DM2,1E1V,1E1X,1E9H,1F5Q,1FIN,1FQ1,1FVT,1FVV,1G5S,1GIH,1GY3,1GZ8,1H00,1H01,1H07,1H08,1H0V,1H0W,1H1P,1H1Q,1H1R,1H1S,1H24,1H25,1H26,1H27,1H28,1HCK,1HCL,1JST,1JSU,1JSV,1JVP,1KE5,1KE6,1KE7,1KE8,1KE9,1OGU,1OI9,1OIQ,1OIR,1OIU,1OIY,1OKV,1OKW,1OL1,1OL2,1P2A,1P5E,1PF8,1PKD,1PW2,1PXI,1PXJ,1PXK,1PXL,1PXM,1PXN,1PXO,1PXP,1PYE,1QMZ,1R78,1URC,1URW,1V1K,1VYW,1VYZ,1W0X,1W8C,1W98,1WCC,1Y8Y,1Y91,1YKR,2A0C,2A4L,2B52,2B53,2B54,2B55,2BHE,2BHH,2BKZ,2BPM,2BTR,2BTS,2C4G,2C5N,2C5O,2C5V,2C5X,2C5Y,2C68,2C69,2C6I,2C6K,2C6L,2C6M,2C6O,2C6T,2CCH,2CCI,2CJM,2CLX,2DUV,2EXM,2FVD,2G9X,2I40,2J9M,2JGZ,2R3F,2R3G,2R3H,2R3I,2R3J,2R3K,2R3L,2R3M,2R3N,2R3O,2R3P,2R3Q,2R3R,2R64,2UUE,2UZB,2UZD,2UZE,2UZL,2UZN,2UZO,2V0D,2V22,2VTA,2VTH,2VTI,2VTJ,2VTL,2VTM,2VTN,2VTO,2VTP,2VTQ,2VTR,2VTS,2VTT,2VU3,2VV9,2W05,2W06,2W17,2W1H,2WEV,2WFY,2WHB,2WIH,2WIP,2WMA,2WMB,2WPA,2WXV,2X1N,2XMY,2XNB,3BHT,3BHU,3BHV,3DDP,3DDQ,3DOG,3EID,3EJ1,3EOC,3EZR,3EZV,3F5X,3FZ1,3IG7,3IGG,3LE6,3LFN,3LFQ,3LFS,3MY5,3NS9,3PJ8,3PXF,3PXQ,3PXR,3PXY,3PXZ,3PY0,3PY1,3QHR,3QHW,3QL8,3QQF,3QQG,3QQH,3QQJ,3QQK,3QQL,3QRT,3QRU,3QTQ,3QTR,3QTS,3QTU,3QTW,3QTX,3QTZ,3QU0,3QWJ,3QWK,3QX2,3QX4,3QXO,3QXP,3QZF,3QZG,3QZH,3QZI,3R1Q,3R1S,3R1Y,3R28,3R6X,3R71,3R73,3R7E,3R7I,3R7U,3R7V,3R7Y,3R83,3R8L,3R8M,3R8P,3R8U,3R8V,3R8Z,3R9D,3R9H,3R9N,3R9O,3RAH,3RAI,3RAK,3RAL,3RJC,3RK5,3RK7,3RK9,3RKB,3RM6,3RM7,3RMF,3RNI,3ROY,3RPO,3RPR,3RPV,3RPY,3RZB,3S00,3S0O,3S1H,3S2P,3SQQ,3SW4,3SW7,3TI1,3TIY,3TIZ,3TNW,3ULI,3UNJ,3UNK,3WBL,4ACM,4BCK,4BCM,4BCN,4BCO,4BCP,4BCQ,4BGH,4BZD,4CFM,4CFN,4CFU,4CFV,4CFW,4CFX,4D1X,4D1Z,4EK3,4EK4,4EK5,4EK6,4EK8,4EOQ,4EOR,4EOS,4ERW,4EZ3,4EZ7,4FKG,4FKI,4FKJ,4FKL,4FKO,4FKP,4FKQ,4FKR,4FKS,4FKT,4FKU,4FKV,4FKW,4FX3,4GCJ,4I3Z,4II5,4KD1,4LYN,4NJ3,4RJ3,5A14,5AND,5ANE,5ANG,5ANI,5ANJ,5ANK,5ANO,5CYI,5D1J,5FP5,5FP6,5IEV,5IEX,5IEY,5IF1,5JQ5,5JQ8,5K4J,5L2W,5LMK,5MHQ,5NEV,5OO0,5OSJ,5UQ1,5UQ2,5UQ3,6ATH,6GUB,6GUC,6GUE,6GUF,6GUH,6GUK,6GVA,6INL,6JGM,6OQI,6P3W,6Q3B,6Q3C,6Q3F,6Q48,6Q49,6Q4A,6Q4B,6Q4C,6Q4D,6Q4E,6Q4F,6Q4H,6Q4J,6Q4K,6RIJ,6SG4,7ACK,7B5L,7B5R,7B7S,7E34,7KJS,7M2F,7NVQ

> <UniProt (SwissProt) Recommended Name of Target Chain>
Cyclin-dependent kinase 2

> <UniProt (SwissProt) Entry Name of Target Chain>
CDK2_HUMAN

> <UniProt (SwissProt) Primary ID of Target Chain>
P24941

> <UniProt (SwissProt) Secondary ID(s) of Target Chain>
A8K7C6,O75100

> <UniProt (SwissProt) Alternative ID(s) of Target Chain>


> <UniProt (TrEMBL) Submitted Name of Target Chain>


> <UniProt (TrEMBL) Entry Name of Target Chain>


> <UniProt (TrEMBL) Primary ID of Target Chain>
A0A024RB77

> <UniProt (TrEMBL) Secondary ID(s) of Target Chain>


> <UniProt (TrEMBL) Alternative ID(s) of Target Chain>


$$$$
BindingDB_50319623_mol_1

Vconf v2.0 Academic SN VC001-00000579
 46 48  0  0  0  0  0  0  0  0999 V2000
    3.4330   -3.9210    0.4180 C   0  0  0  0  0  0  0  0  0  0  0
    3.6020   -5.2870    0.1570 C   0  0  0  0  0  0  0  0  0  0  0
    4.8460   -5.8070    0.0420 N   0  0  0  0  0  0  0  0  0  0  0
    5.9530   -5.0420    0.1850 C   0  0  0  0  0  0  0  0  0  0  0
    5.7970   -3.7200    0.4500 N   0  0  0  0  0  0  0  0  0  0  0
    4.5830   -3.1250    0.5680 C   0  0  0  0  0  0  0  0  0  0  0
    7.1640   -5.6260    0.0290 N   0  0  0  0  0  0  0  0  0  0  0
    8.3530   -4.9830    0.1230 C   0  0  0  0  0  0  0  0  0  0  0
    9.2460   -5.0290   -0.9630 C   0  0  0  0  0  0  0  0  0  0  0
   10.4950   -4.3880   -0.8980 C   0  0  0  0  0  0  0  0  0  0  0
   10.8700   -3.7120    0.2860 C   0  0  0  0  0  0  0  0  0  0  0
    9.9740   -3.6500    1.3770 C   0  0  0  0  0  0  0  0  0  0  0
    8.7320   -4.3030    1.2960 C   0  0  0  0  0  0  0  0  0  0  0
    4.4710   -1.7380    0.8080 C   0  0  0  0  0  0  0  0  0  0  0
    2.9310   -0.9420    0.8240 S   0  0  0  0  0  0  0  0  0  0  0
    3.7810    0.5440    1.0780 C   0  0  0  0  0  0  0  0  0  0  0
    5.1110    0.4240    1.1730 N   0  0  0  0  0  0  0  0  0  0  0
    5.5230   -0.8430    1.0320 C   0  0  0  0  0  0  0  0  0  0  0
    6.9460   -1.1850    1.1320 C   0  0  0  0  0  0  0  0  0  0  0
    3.0960    1.8330    1.1760 C   0  0  0  0  0  0  0  0  0  0  0
   12.1070   -3.1580    0.3790 O   0  0  0  0  0  0  0  0  0  0  0
   13.0750   -3.8160    1.1990 C   0  0  0  0  0  0  0  0  0  0  0
   10.2720   -3.0020    2.5380 O   0  0  0  0  0  0  0  0  0  0  0
   10.5690   -1.6030    2.5110 C   0  0  0  0  0  0  0  0  0  0  0
   11.3000   -4.4970   -1.9940 O   0  0  0  0  0  0  0  0  0  0  0
   11.9280   -3.3460   -2.5670 C   0  0  0  0  0  0  0  0  0  0  0
    2.4940   -3.5300    0.4960 H   0  0  0  0  0  0  0  0  0  0  0
    2.7880   -5.8920    0.0460 H   0  0  0  0  0  0  0  0  0  0  0
    7.1770   -6.5640   -0.2180 H   0  0  0  0  0  0  0  0  0  0  0
    8.9830   -5.5280   -1.8140 H   0  0  0  0  0  0  0  0  0  0  0
    8.0980   -4.2770    2.0950 H   0  0  0  0  0  0  0  0  0  0  0
    7.5290   -0.2860    1.3360 H   0  0  0  0  0  0  0  0  0  0  0
    7.0930   -1.8930    1.9480 H   0  0  0  0  0  0  0  0  0  0  0
    7.2900   -1.6260    0.1960 H   0  0  0  0  0  0  0  0  0  0  0
    3.8250    2.6320    1.3170 H   0  0  0  0  0  0  0  0  0  0  0
    2.5350    2.0140    0.2600 H   0  0  0  0  0  0  0  0  0  0  0
    2.4110    1.8160    2.0240 H   0  0  0  0  0  0  0  0  0  0  0
   14.0140   -3.2650    1.1460 H   0  0  0  0  0  0  0  0  0  0  0
   12.7410   -3.8460    2.2380 H   0  0  0  0  0  0  0  0  0  0  0
   13.2420   -4.8330    0.8410 H   0  0  0  0  0  0  0  0  0  0  0
   10.7300   -1.2570    3.5320 H   0  0  0  0  0  0  0  0  0  0  0
   11.4700   -1.4050    1.9320 H   0  0  0  0  0  0  0  0  0  0  0
    9.7330   -1.0480    2.0820 H   0  0  0  0  0  0  0  0  0  0  0
   12.4120   -3.6380   -3.4990 H   0  0  0  0  0  0  0  0  0  0  0
   11.1830   -2.5790   -2.7860 H   0  0  0  0  0  0  0  0  0  0  0
   12.6850   -2.9400   -1.8980 H   0  0  0  0  0  0  0  0  0  0  0
  1  2  2  0  0  0  0
  1  6  1  0  0  0  0
  1 27  1  0  0  0  0
  2  3  1  0  0  0  0
  2 28  1  0  0  0  0
  3  4  2  0  0  0  0
  4  5  1  0  0  0  0
  4  7  1  0  0  0  0
  5  6  2  0  0  0  0
  6 14  1  0  0  0  0
  7  8  1  0  0  0  0
  7 29  1  0  0  0  0
  8  9  1  0  0  0  0
  8 13  2  0  0  0  0
  9 10  2  0  0  0  0
  9 30  1  0  0  0  0
 10 11  1  0  0  0  0
 10 25  1  0  0  0  0
 11 12  2  0  0  0  0
 11 21  1  0  0  0  0
 12 13  1  0  0  0  0
 12 23  1  0  0  0  0
 13 31  1  0  0  0  0
 14 15  1  0  0  0  0
 14 18  2  0  0  0  0
 15 16  1  0  0  0  0
 16 17  2  0  0  0  0
 16 20  1  0  0  0  0
 17 18  1  0  0  0  0
 18 19  1  0  0  0  0
 19 32  1  0  0  0  0
 19 33  1  0  0  0  0
 19 34  1  0  0  0  0
 20 35  1  0  0  0  0
 20 36  1  0  0  0  0
 20 37  1  0  0  0  0
 21 22  1  0  0  0  0
 22 38  1  0  0  0  0
 22 39  1  0  0  0  0
 22 40  1  0  0  0  0
 23 24  1  0  0  0  0
 24 41  1  0  0  0  0
 24 42  1  0  0  0  0
 24 43  1  0  0  0  0
 25 26  1  0  0  0  0
 26 44  1  0  0  0  0
 26 45  1  0  0  0  0
 26 46  1  0  0  0  0
M  END
> <From>
www.bindingDB.org

> <BindingDB Reactant_set_id>
50579849

> <Ligand InChI>
InChI=1S/C18H20N4O3S/c1-10-17(26-11(2)20-10)13-6-7-19-18(22-13)21-12-8-14(23-3)16(25-5)15(9-12)24-4/h6-9H,1-5H3,(H,19,21,22)

> <Ligand InChI Key>
WOHBHEXSHHPQIV-UHFFFAOYSA-N

> <BindingDB MonomerID>
50319623

> <BindingDB Ligand Name>
4-(2,4-Dimethylthiazol-5-yl)-N-(3,4,5-trimethoxyphenyl)pyrimidin-2-amine::CHEMBL1083151

> <Target Name Assigned by Curator or DataSource>
Cyclin-dependent kinase 2

> <Target Source Organism According to Curator or DataSource>
Homo sapiens

> <Ki (nM)>
 239

> <IC50 (nM)>


> <Kd (nM)>


> <EC50 (nM)>


> <kon (M-1-s-1)>


> <koff (s-1)>


> <pH>


> <Temp C>


> <Curation/DataSource>
ChEMBL

> <Article DOI>
10.1021/jm901913s

> <PMID>
20462263

> <PubChem AID>


> <Patent Number>


> <Authors>
Wang, S; Midgley, CA; Scaerou, F; Grabarek, JB; Griffiths, G; Jackson, W; Kontopidis, G; McClue, SJ; McInnes, C; Meades, C; Mezna, M; Plater, A; Stuart, I; Thomas, MP; Wood, G; Clarke, RG; Blake, DG; Zheleva, DI; Lane, DP; Jackson, RC; Glover, DM; Fischer, PM

> <Institution>
Cyclacel Ltd

> <Link to Ligand in BindingDB>
http://www.bindingdb.org/bind/chemsearch/marvin/MolStructure.jsp?monomerid=50319623

> <Link to Ligand-Target Pair in BindingDB>
http://www.bindingdb.org/jsp/dbsearch/PrimarySearch_ki.jsp?energyterm=kJ/mole&tag=pol&polymerid=796&target=Cyclin-dependent+kinase+2&column=ki&startPg=0&Increment=50&submit=Search

> <Link to Ligand-Target Pair in BindingDB>
http://www.bindingdb.org/jsp/dbsearch/PrimarySearch_ki.jsp?energyterm=kJ/mole&tag=r21&monomerid=50319623&enzyme=Cyclin-dependent+kinase+2&column=ki&startPg=0&Increment=50&submit=Search

> <Ligand HET ID in PDB>


> <PDB ID(s) for Ligand-Target Complex>


> <PubChem CID>
11632150

> <PubChem SID>
104153984

> <ChEBI ID of Ligand>


> <ChEMBL ID of Ligand>
CHEMBL1083151

> <DrugBank ID of Ligand>


> <IUPHAR_GRAC ID of Ligand>


> <KEGG ID of Ligand>


> <ZINC ID of Ligand>
ZINC35967092

> <Number of Protein Chains in Target (bigger than 1 implies a multichain complex)>
1

> <BindingDB Target Chain Sequence>
MENFQKVEKIGEGTYGVVYKARNKLTGEVVALKKIRLDTETEGVPSTAIREISLLKELNHPNIVKLLDVIHTENKLYLVFEFLHQDLKKFMDASALTGIPLPLIKSYLFQLLQGLAFCHSHRVLHRDLKPQNLLINTEGAIKLADFGLARAFGVPVRTYTHEVVTLWYRAPEILLGCKYYSTAVDIWSLGCIFAEMVTRRALFPGDSEIDQLFRIFRTLGTPDEVVWPGVTSMPDYKPSFPKWARQDFSKVVPPLDEDGRSLLSQMLHYDPNKRISAKAALAHPFFQDVTKPVPHLRL

> <PDB ID(s) of Target Chain>
1CKP,1DI8,1DM2,1E1V,1E1X,1E9H,1F5Q,1FIN,1FQ1,1FVT,1FVV,1G5S,1GIH,1GY3,1GZ8,1H00,1H01,1H07,1H08,1H0V,1H0W,1H1P,1H1Q,1H1R,1H1S,1H24,1H25,1H26,1H27,1H28,1HCK,1HCL,1JST,1JSU,1JSV,1JVP,1KE5,1KE6,1KE7,1KE8,1KE9,1OGU,1OI9,1OIQ,1OIR,1OIU,1OIY,1OKV,1OKW,1OL1,1OL2,1P2A,1P5E,1PF8,1PKD,1PW2,1PXI,1PXJ,1PXK,1PXL,1PXM,1PXN,1PXO,1PXP,1PYE,1QMZ,1R78,1URC,1URW,1V1K,1VYW,1VYZ,1W0X,1W8C,1W98,1WCC,1Y8Y,1Y91,1YKR,2A0C,2A4L,2B52,2B53,2B54,2B55,2BHE,2BHH,2BKZ,2BPM,2BTR,2BTS,2C4G,2C5N,2C5O,2C5V,2C5X,2C5Y,2C68,2C69,2C6I,2C6K,2C6L,2C6M,2C6O,2C6T,2CCH,2CCI,2CJM,2CLX,2DUV,2EXM,2FVD,2G9X,2I40,2J9M,2JGZ,2R3F,2R3G,2R3H,2R3I,2R3J,2R3K,2R3L,2R3M,2R3N,2R3O,2R3P,2R3Q,2R3R,2R64,2UUE,2UZB,2UZD,2UZE,2UZL,2UZN,2UZO,2V0D,2V22,2VTA,2VTH,2VTI,2VTJ,2VTL,2VTM,2VTN,2VTO,2VTP,2VTQ,2VTR,2VTS,2VTT,2VU3,2VV9,2W05,2W06,2W17,2W1H,2WEV,2WFY,2WHB,2WIH,2WIP,2WMA,2WMB,2WPA,2WXV,2X1N,2XMY,2XNB,3BHT,3BHU,3BHV,3DDP,3DDQ,3DOG,3EID,3EJ1,3EOC,3EZR,3EZV,3F5X,3FZ1,3IG7,3IGG,3LE6,3LFN,3LFQ,3LFS,3MY5,3NS9,3PJ8,3PXF,3PXQ,3PXR,3PXY,3PXZ,3PY0,3PY1,3QHR,3QHW,3QL8,3QQF,3QQG,3QQH,3QQJ,3QQK,3QQL,3QRT,3QRU,3QTQ,3QTR,3QTS,3QTU,3QTW,3QTX,3QTZ,3QU0,3QWJ,3QWK,3QX2,3QX4,3QXO,3QXP,3QZF,3QZG,3QZH,3QZI,3R1Q,3R1S,3R1Y,3R28,3R6X,3R71,3R73,3R7E,3R7I,3R7U,3R7V,3R7Y,3R83,3R8L,3R8M,3R8P,3R8U,3R8V,3R8Z,3R9D,3R9H,3R9N,3R9O,3RAH,3RAI,3RAK,3RAL,3RJC,3RK5,3RK7,3RK9,3RKB,3RM6,3RM7,3RMF,3RNI,3ROY,3RPO,3RPR,3RPV,3RPY,3RZB,3S00,3S0O,3S1H,3S2P,3SQQ,3SW4,3SW7,3TI1,3TIY,3TIZ,3TNW,3ULI,3UNJ,3UNK,3WBL,4ACM,4BCK,4BCM,4BCN,4BCO,4BCP,4BCQ,4BGH,4BZD,4CFM,4CFN,4CFU,4CFV,4CFW,4CFX,4D1X,4D1Z,4EK3,4EK4,4EK5,4EK6,4EK8,4EOQ,4EOR,4EOS,4ERW,4EZ3,4EZ7,4FKG,4FKI,4FKJ,4FKL,4FKO,4FKP,4FKQ,4FKR,4FKS,4FKT,4FKU,4FKV,4FKW,4FX3,4GCJ,4I3Z,4II5,4KD1,4LYN,4NJ3,4RJ3,5A14,5AND,5ANE,5ANG,5ANI,5ANJ,5ANK,5ANO,5CYI,5D1J,5FP5,5FP6,5IEV,5IEX,5IEY,5IF1,5JQ5,5JQ8,5K4J,5L2W,5LMK,5MHQ,5NEV,5OO0,5OSJ,5UQ1,5UQ2,5UQ3,6ATH,6GUB,6GUC,6GUE,6GUF,6GUH,6GUK,6GVA,6INL,6JGM,6OQI,6P3W,6Q3B,6Q3C,6Q3F,6Q48,6Q49,6Q4A,6Q4B,6Q4C,6Q4D,6Q4E,6Q4F,6Q4H,6Q4J,6Q4K,6RIJ,6SG4,7ACK,7B5L,7B5R,7B7S,7E34,7KJS,7M2F,7NVQ

> <UniProt (SwissProt) Recommended Name of Target Chain>
Cyclin-dependent kinase 2

> <UniProt (SwissProt) Entry Name of Target Chain>
CDK2_HUMAN

> <UniProt (SwissProt) Primary ID of Target Chain>
P24941

> <UniProt (SwissProt) Secondary ID(s) of Target Chain>
A8K7C6,O75100

> <UniProt (SwissProt) Alternative ID(s) of Target Chain>


> <UniProt (TrEMBL) Submitted Name of Target Chain>


> <UniProt (TrEMBL) Entry Name of Target Chain>


> <UniProt (TrEMBL) Primary ID of Target Chain>
A0A024RB77

> <UniProt (TrEMBL) Secondary ID(s) of Target Chain>


> <UniProt (TrEMBL) Alternative ID(s) of Target Chain>


$$$$
2_6_9-Trisubstituted

Vconf v2.0 Academic SN VC001-00000579
 52 54  0  0  0  0  0  0  0  0999 V2000
   -1.2450    1.0100    0.8160 C   0  0  0  0  0  0  0  0  0  0  0
   -0.1270    0.2400    0.8360 N   0  0  0  0  0  0  0  0  0  0  0
   -1.1340    2.3560    0.6500 N   0  0  0  0  0  0  0  0  0  0  0
    1.2210    2.1930    0.5180 C   0  0  0  0  0  0  0  0  0  0  0
    1.0850    0.8240    0.6900 C   0  0  0  0  0  0  0  0  0  0  0
    3.1710    1.3300    0.4970 C   0  0  0  0  0  0  0  0  0  0  0
    2.5200    2.5050    0.3980 N   0  0  0  0  0  0  0  0  0  0  0
    2.3180    0.2980    0.6730 N   0  0  0  0  0  0  0  0  0  0  0
    0.0640    2.9810    0.4960 C   0  0  0  0  0  0  0  0  0  0  0
    0.1450    4.3150    0.3200 N   0  0  0  0  0  0  0  0  0  0  0
   -2.4440    0.4170    0.9700 N   0  0  0  0  0  0  0  0  0  0  0
   -1.0000    5.1560    0.2750 C   0  0  0  0  0  0  0  0  0  0  0
   -0.5990    6.5510    0.0150 C   0  0  0  0  0  0  0  0  0  0  0
    0.1660    9.2170   -0.5080 C   0  0  0  0  0  0  0  0  0  0  0
    0.4100    8.2160   -1.4630 C   0  0  0  0  0  0  0  0  0  0  0
    0.0270    6.8890   -1.2020 C   0  0  0  0  0  0  0  0  0  0  0
   -0.8420    7.5630    0.9670 C   0  0  0  0  0  0  0  0  0  0  0
   -0.4600    8.8900    0.7070 C   0  0  0  0  0  0  0  0  0  0  0
   -3.6820    1.1200    0.9870 C   0  0  1  0  0  0  0  0  0  0  0
   -4.0320    1.6610   -0.4140 C   0  0  0  0  0  0  0  0  0  0  0
   -5.2560    2.3830   -0.3750 O   0  0  0  0  0  0  0  0  0  0  0
    3.3750   -1.6010   -0.4420 C   0  0  0  0  0  0  0  0  0  0  0
    2.6530   -1.0830    0.8130 C   0  0  0  0  0  0  0  0  0  0  0
    3.5260   -1.3120    2.0580 C   0  0  0  0  0  0  0  0  0  0  0
   -4.7920    0.1670    1.4660 C   0  0  0  0  0  0  0  0  0  0  0
   -4.5330   -0.3320    2.8950 C   0  0  0  0  0  0  0  0  0  0  0
    4.1860    1.2340    0.4440 H   0  0  0  0  0  0  0  0  0  0  0
    1.0250    4.7130    0.2120 H   0  0  0  0  0  0  0  0  0  0  0
   -2.4600   -0.5420    1.1110 H   0  0  0  0  0  0  0  0  0  0  0
   -1.6680    4.8260   -0.5220 H   0  0  0  0  0  0  0  0  0  0  0
   -1.5330    5.0800    1.2260 H   0  0  0  0  0  0  0  0  0  0  0
    0.4430   10.1810   -0.6960 H   0  0  0  0  0  0  0  0  0  0  0
    0.8640    8.4520   -2.3450 H   0  0  0  0  0  0  0  0  0  0  0
    0.2060    6.1670   -1.9010 H   0  0  0  0  0  0  0  0  0  0  0
   -1.2970    7.3350    1.8510 H   0  0  0  0  0  0  0  0  0  0  0
   -0.6380    9.6170    1.4010 H   0  0  0  0  0  0  0  0  0  0  0
   -3.6200    1.9570    1.6860 H   0  0  0  0  0  0  0  0  0  0  0
   -3.2470    2.3330   -0.7620 H   0  0  0  0  0  0  0  0  0  0  0
   -4.1260    0.8310   -1.1150 H   0  0  0  0  0  0  0  0  0  0  0
   -5.5290    2.7610   -1.2370 H   0  0  0  0  0  0  0  0  0  0  0
    3.5630   -2.6700   -0.3400 H   0  0  0  0  0  0  0  0  0  0  0
    2.7500   -1.4310   -1.3190 H   0  0  0  0  0  0  0  0  0  0  0
    4.3260   -1.0820   -0.5720 H   0  0  0  0  0  0  0  0  0  0  0
    1.7420   -1.6720    0.9360 H   0  0  0  0  0  0  0  0  0  0  0
    3.7190   -2.3780    2.1770 H   0  0  0  0  0  0  0  0  0  0  0
    4.4760   -0.7860    1.9560 H   0  0  0  0  0  0  0  0  0  0  0
    3.0040   -0.9440    2.9420 H   0  0  0  0  0  0  0  0  0  0  0
   -5.7470    0.6950    1.4540 H   0  0  0  0  0  0  0  0  0  0  0
   -4.8560   -0.6890    0.7930 H   0  0  0  0  0  0  0  0  0  0  0
   -5.3620   -0.9650    3.2120 H   0  0  0  0  0  0  0  0  0  0  0
   -3.6090   -0.9100    2.9270 H   0  0  0  0  0  0  0  0  0  0  0
   -4.4520    0.5190    3.5720 H   0  0  0  0  0  0  0  0  0  0  0
  1  2  1  0  0  0  0
  1  3  2  0  0  0  0
  1 11  1  0  0  0  0
  2  5  2  0  0  0  0
  3  9  1  0  0  0  0
  4  5  1  0  0  0  0
  4  7  1  0  0  0  0
  4  9  2  0  0  0  0
  5  8  1  0  0  0  0
  6  7  2  0  0  0  0
  6  8  1  0  0  0  0
  6 27  1  0  0  0  0
  8 23  1  0  0  0  0
  9 10  1  0  0  0  0
 10 12  1  0  0  0  0
 10 28  1  0  0  0  0
 19 11  1  6  0  0  0
 11 29  1  0  0  0  0
 12 13  1  0  0  0  0
 12 30  1  0  0  0  0
 12 31  1  0  0  0  0
 13 16  2  0  0  0  0
 13 17  1  0  0  0  0
 14 15  2  0  0  0  0
 14 18  1  0  0  0  0
 14 32  1  0  0  0  0
 15 16  1  0  0  0  0
 15 33  1  0  0  0  0
 16 34  1  0  0  0  0
 17 18  2  0  0  0  0
 17 35  1  0  0  0  0
 18 36  1  0  0  0  0
 19 20  1  0  0  0  0
 19 25  1  0  0  0  0
 19 37  1  0  0  0  0
 20 21  1  0  0  0  0
 20 38  1  0  0  0  0
 20 39  1  0  0  0  0
 21 40  1  0  0  0  0
 22 23  1  0  0  0  0
 22 41  1  0  0  0  0
 22 42  1  0  0  0  0
 22 43  1  0  0  0  0
 23 24  1  0  0  0  0
 23 44  1  0  0  0  0
 24 45  1  0  0  0  0
 24 46  1  0  0  0  0
 24 47  1  0  0  0  0
 25 26  1  0  0  0  0
 25 48  1  0  0  0  0
 25 49  1  0  0  0  0
 26 50  1  0  0  0  0
 26 51  1  0  0  0  0
 26 52  1  0  0  0  0
M  END
> <From>
www.bindingDB.org

> <BindingDB Reactant_set_id>
184852

> <Ligand InChI>
InChI=1S/C19H26N6O/c1-4-15(11-26)22-19-23-17(20-10-14-8-6-5-7-9-14)16-18(24-19)25(12-21-16)13(2)3/h5-9,12-13,15,26H,4,10-11H2,1-3H3,(H2,20,22,23,24)/t15-/m1/s1

> <Ligand InChI Key>
BTIHMVBBUGXLCJ-OAHLLOKOSA-N

> <BindingDB MonomerID>
7533

> <BindingDB Ligand Name>
(2R)-2-[[6-(benzylamino)-9-isopropyl-purin-2-yl]amino]butan-1-ol::(2R)-2-[[6-(benzylamino)-9-propan-2-ylpurin-2-yl]amino]butan-1-ol::(2R)-2-[[6-[(phenylmethyl)amino]-9-propan-2-yl-2-purinyl]amino]-1-butanol::(2R)-2-[[6-[(phenylmethyl)amino]-9-propan-2-yl-purin-2-yl]amino]butan-1-ol::(2R)-2-{[6-(benzylamino)-9-(propan-2-yl)-9H-purin-2-yl]amino}butan-1-ol::(R)-Roscovitine::2,6,9-Trisubstituted purine deriv. 28::CHEMBL14762::CYC-202::Roscovitine::cid_160355

> <Target Name Assigned by Curator or DataSource>
Cyclin-dependent kinase 2

> <Target Source Organism According to Curator or DataSource>
Homo sapiens

> <Ki (nM)>
 250

> <IC50 (nM)>


> <Kd (nM)>


> <EC50 (nM)>


> <kon (M-1-s-1)>


> <koff (s-1)>


> <pH>


> <Temp C>


> <Curation/DataSource>
PDSP Ki

> <Article DOI>
10.1042/BJ20021535

> <PMID>
12534346

> <PubChem AID>


> <Patent Number>


> <Authors>
Bain, J; McLauchlan, H; Elliott, M; Cohen, P

> <Institution>
University of Dundee

> <Link to Ligand in BindingDB>
http://www.bindingdb.org/bind/chemsearch/marvin/MolStructure.jsp?monomerid=7533

> <Link to Ligand-Target Pair in BindingDB>
http://www.bindingdb.org/jsp/dbsearch/PrimarySearch_ki.jsp?energyterm=kJ/mole&tag=pol&polymerid=796&target=Cyclin-dependent+kinase+2&column=ki&startPg=0&Increment=50&submit=Search

> <Link to Ligand-Target Pair in BindingDB>
http://www.bindingdb.org/jsp/dbsearch/PrimarySearch_ki.jsp?energyterm=kJ/mole&tag=r21&monomerid=7533&enzyme=Cyclin-dependent+kinase+2&column=ki&startPg=0&Increment=50&submit=Search

> <Ligand HET ID in PDB>
RRC

> <PDB ID(s) for Ligand-Target Complex>
3DDQ,1UNL,1YGK,2A4L

> <PubChem CID>
160355

> <PubChem SID>
11108321

> <ChEBI ID of Ligand>


> <ChEMBL ID of Ligand>
CHEMBL14762

> <DrugBank ID of Ligand>


> <IUPHAR_GRAC ID of Ligand>
6035

> <KEGG ID of Ligand>


> <ZINC ID of Ligand>
ZINC01649340

> <Number of Protein Chains in Target (bigger than 1 implies a multichain complex)>
1

> <BindingDB Target Chain Sequence>
MENFQKVEKIGEGTYGVVYKARNKLTGEVVALKKIRLDTETEGVPSTAIREISLLKELNHPNIVKLLDVIHTENKLYLVFEFLHQDLKKFMDASALTGIPLPLIKSYLFQLLQGLAFCHSHRVLHRDLKPQNLLINTEGAIKLADFGLARAFGVPVRTYTHEVVTLWYRAPEILLGCKYYSTAVDIWSLGCIFAEMVTRRALFPGDSEIDQLFRIFRTLGTPDEVVWPGVTSMPDYKPSFPKWARQDFSKVVPPLDEDGRSLLSQMLHYDPNKRISAKAALAHPFFQDVTKPVPHLRL

> <PDB ID(s) of Target Chain>
1CKP,1DI8,1DM2,1E1V,1E1X,1E9H,1F5Q,1FIN,1FQ1,1FVT,1FVV,1G5S,1GIH,1GY3,1GZ8,1H00,1H01,1H07,1H08,1H0V,1H0W,1H1P,1H1Q,1H1R,1H1S,1H24,1H25,1H26,1H27,1H28,1HCK,1HCL,1JST,1JSU,1JSV,1JVP,1KE5,1KE6,1KE7,1KE8,1KE9,1OGU,1OI9,1OIQ,1OIR,1OIU,1OIY,1OKV,1OKW,1OL1,1OL2,1P2A,1P5E,1PF8,1PKD,1PW2,1PXI,1PXJ,1PXK,1PXL,1PXM,1PXN,1PXO,1PXP,1PYE,1QMZ,1R78,1URC,1URW,1V1K,1VYW,1VYZ,1W0X,1W8C,1W98,1WCC,1Y8Y,1Y91,1YKR,2A0C,2A4L,2B52,2B53,2B54,2B55,2BHE,2BHH,2BKZ,2BPM,2BTR,2BTS,2C4G,2C5N,2C5O,2C5V,2C5X,2C5Y,2C68,2C69,2C6I,2C6K,2C6L,2C6M,2C6O,2C6T,2CCH,2CCI,2CJM,2CLX,2DUV,2EXM,2FVD,2G9X,2I40,2J9M,2JGZ,2R3F,2R3G,2R3H,2R3I,2R3J,2R3K,2R3L,2R3M,2R3N,2R3O,2R3P,2R3Q,2R3R,2R64,2UUE,2UZB,2UZD,2UZE,2UZL,2UZN,2UZO,2V0D,2V22,2VTA,2VTH,2VTI,2VTJ,2VTL,2VTM,2VTN,2VTO,2VTP,2VTQ,2VTR,2VTS,2VTT,2VU3,2VV9,2W05,2W06,2W17,2W1H,2WEV,2WFY,2WHB,2WIH,2WIP,2WMA,2WMB,2WPA,2WXV,2X1N,2XMY,2XNB,3BHT,3BHU,3BHV,3DDP,3DDQ,3DOG,3EID,3EJ1,3EOC,3EZR,3EZV,3F5X,3FZ1,3IG7,3IGG,3LE6,3LFN,3LFQ,3LFS,3MY5,3NS9,3PJ8,3PXF,3PXQ,3PXR,3PXY,3PXZ,3PY0,3PY1,3QHR,3QHW,3QL8,3QQF,3QQG,3QQH,3QQJ,3QQK,3QQL,3QRT,3QRU,3QTQ,3QTR,3QTS,3QTU,3QTW,3QTX,3QTZ,3QU0,3QWJ,3QWK,3QX2,3QX4,3QXO,3QXP,3QZF,3QZG,3QZH,3QZI,3R1Q,3R1S,3R1Y,3R28,3R6X,3R71,3R73,3R7E,3R7I,3R7U,3R7V,3R7Y,3R83,3R8L,3R8M,3R8P,3R8U,3R8V,3R8Z,3R9D,3R9H,3R9N,3R9O,3RAH,3RAI,3RAK,3RAL,3RJC,3RK5,3RK7,3RK9,3RKB,3RM6,3RM7,3RMF,3RNI,3ROY,3RPO,3RPR,3RPV,3RPY,3RZB,3S00,3S0O,3S1H,3S2P,3SQQ,3SW4,3SW7,3TI1,3TIY,3TIZ,3TNW,3ULI,3UNJ,3UNK,3WBL,4ACM,4BCK,4BCM,4BCN,4BCO,4BCP,4BCQ,4BGH,4BZD,4CFM,4CFN,4CFU,4CFV,4CFW,4CFX,4D1X,4D1Z,4EK3,4EK4,4EK5,4EK6,4EK8,4EOQ,4EOR,4EOS,4ERW,4EZ3,4EZ7,4FKG,4FKI,4FKJ,4FKL,4FKO,4FKP,4FKQ,4FKR,4FKS,4FKT,4FKU,4FKV,4FKW,4FX3,4GCJ,4I3Z,4II5,4KD1,4LYN,4NJ3,4RJ3,5A14,5AND,5ANE,5ANG,5ANI,5ANJ,5ANK,5ANO,5CYI,5D1J,5FP5,5FP6,5IEV,5IEX,5IEY,5IF1,5JQ5,5JQ8,5K4J,5L2W,5LMK,5MHQ,5NEV,5OO0,5OSJ,5UQ1,5UQ2,5UQ3,6ATH,6GUB,6GUC,6GUE,6GUF,6GUH,6GUK,6GVA,6INL,6JGM,6OQI,6P3W,6Q3B,6Q3C,6Q3F,6Q48,6Q49,6Q4A,6Q4B,6Q4C,6Q4D,6Q4E,6Q4F,6Q4H,6Q4J,6Q4K,6RIJ,6SG4,7ACK,7B5L,7B5R,7B7S,7E34,7KJS,7M2F,7NVQ

> <UniProt (SwissProt) Recommended Name of Target Chain>
Cyclin-dependent kinase 2

> <UniProt (SwissProt) Entry Name of Target Chain>
CDK2_HUMAN

> <UniProt (SwissProt) Primary ID of Target Chain>
P24941

> <UniProt (SwissProt) Secondary ID(s) of Target Chain>
A8K7C6,O75100

> <UniProt (SwissProt) Alternative ID(s) of Target Chain>


> <UniProt (TrEMBL) Submitted Name of Target Chain>


> <UniProt (TrEMBL) Entry Name of Target Chain>


> <UniProt (TrEMBL) Primary ID of Target Chain>
A0A024RB77

> <UniProt (TrEMBL) Secondary ID(s) of Target Chain>


> <UniProt (TrEMBL) Alternative ID(s) of Target Chain>


$$$$
2-Anilino-4-_thiazol-5-yl_pyrimidine

Vconf v2.0 Academic SN VC001-00000579
 42 44  0  0  0  0  0  0  0  0999 V2000
   -0.3650    4.7800    0.5900 C   0  0  0  0  0  0  0  0  0  0  0
   -2.5810    4.7640    0.3790 C   0  0  0  0  0  0  0  0  0  0  0
   -2.3100    3.3910    0.4240 C   0  0  0  0  0  0  0  0  0  0  0
   -1.4770    5.5170    0.4740 N   0  0  0  0  0  0  0  0  0  0  0
   -3.9040    5.3870    0.2420 C   0  0  0  0  0  0  0  0  0  0  0
   -0.6150    3.0680    0.5830 S   0  0  0  0  0  0  0  0  0  0  0
   -3.2550    2.3460    0.3560 C   0  0  0  0  0  0  0  0  0  0  0
   -2.8540    0.9980    0.4020 C   0  0  0  0  0  0  0  0  0  0  0
   -3.8470    0.0110    0.3320 C   0  0  0  0  0  0  0  0  0  0  0
   -5.5340    1.6600    0.1840 C   0  0  0  0  0  0  0  0  0  0  0
   -4.5780    2.6190    0.2490 N   0  0  0  0  0  0  0  0  0  0  0
   -5.1510    0.3630    0.2250 N   0  0  0  0  0  0  0  0  0  0  0
   -6.8490    1.9590    0.0840 N   0  0  0  0  0  0  0  0  0  0  0
   -7.3160    3.2270    0.0550 C   0  0  0  0  0  0  0  0  0  0  0
   -7.8780    5.2450   -1.1920 C   0  0  0  0  0  0  0  0  0  0  0
   -7.4290    3.9140   -1.1690 C   0  0  0  0  0  0  0  0  0  0  0
   -7.6700    3.8750    1.2530 C   0  0  0  0  0  0  0  0  0  0  0
   -8.1180    5.2060    1.2290 C   0  0  0  0  0  0  0  0  0  0  0
   -8.2200    5.8990    0.0080 C   0  0  0  0  0  0  0  0  0  0  0
    0.9610    5.3810    0.7150 C   0  0  0  0  0  0  0  0  0  0  0
   -8.6330    7.1900   -0.0120 N   0  0  0  0  0  0  0  0  0  0  0
   -9.9600    7.4970   -0.4320 C   0  0  0  0  0  0  0  0  0  0  0
   -7.7300    8.2190    0.3880 C   0  0  0  0  0  0  0  0  0  0  0
   -3.8040    6.4730    0.2290 H   0  0  0  0  0  0  0  0  0  0  0
   -4.3700    5.0660   -0.6900 H   0  0  0  0  0  0  0  0  0  0  0
   -4.5370    5.1020    1.0830 H   0  0  0  0  0  0  0  0  0  0  0
   -1.8720    0.7310    0.4830 H   0  0  0  0  0  0  0  0  0  0  0
   -3.5890   -0.9750    0.3610 H   0  0  0  0  0  0  0  0  0  0  0
   -7.4850    1.2280    0.0450 H   0  0  0  0  0  0  0  0  0  0  0
   -7.9490    5.7400   -2.0820 H   0  0  0  0  0  0  0  0  0  0  0
   -7.1720    3.4510   -2.0420 H   0  0  0  0  0  0  0  0  0  0  0
   -7.5900    3.3830    2.1440 H   0  0  0  0  0  0  0  0  0  0  0
   -8.3640    5.6730    2.1030 H   0  0  0  0  0  0  0  0  0  0  0
    1.7120    4.5960    0.7980 H   0  0  0  0  0  0  0  0  0  0  0
    1.1690    5.9900   -0.1640 H   0  0  0  0  0  0  0  0  0  0  0
    0.9930    6.0070    1.6070 H   0  0  0  0  0  0  0  0  0  0  0
  -10.1460    8.5710   -0.3860 H   0  0  0  0  0  0  0  0  0  0  0
  -10.1130    7.1640   -1.4600 H   0  0  0  0  0  0  0  0  0  0  0
  -10.6790    6.9940    0.2170 H   0  0  0  0  0  0  0  0  0  0  0
   -8.1970    9.2010    0.3110 H   0  0  0  0  0  0  0  0  0  0  0
   -7.4220    8.0630    1.4230 H   0  0  0  0  0  0  0  0  0  0  0
   -6.8470    8.2040   -0.2530 H   0  0  0  0  0  0  0  0  0  0  0
  1  4  2  0  0  0  0
  1  6  1  0  0  0  0
  1 20  1  0  0  0  0
  2  3  2  0  0  0  0
  2  4  1  0  0  0  0
  2  5  1  0  0  0  0
  3  6  1  0  0  0  0
  3  7  1  0  0  0  0
  5 24  1  0  0  0  0
  5 25  1  0  0  0  0
  5 26  1  0  0  0  0
  7  8  2  0  0  0  0
  7 11  1  0  0  0  0
  8  9  1  0  0  0  0
  8 27  1  0  0  0  0
  9 12  2  0  0  0  0
  9 28  1  0  0  0  0
 10 11  2  0  0  0  0
 10 12  1  0  0  0  0
 10 13  1  0  0  0  0
 13 14  1  0  0  0  0
 13 29  1  0  0  0  0
 14 16  2  0  0  0  0
 14 17  1  0  0  0  0
 15 16  1  0  0  0  0
 15 19  2  0  0  0  0
 15 30  1  0  0  0  0
 16 31  1  0  0  0  0
 17 18  2  0  0  0  0
 17 32  1  0  0  0  0
 18 19  1  0  0  0  0
 18 33  1  0  0  0  0
 19 21  1  0  0  0  0
 20 34  1  0  0  0  0
 20 35  1  0  0  0  0
 20 36  1  0  0  0  0
 21 22  1  0  0  0  0
 21 23  1  0  0  0  0
 22 37  1  0  0  0  0
 22 38  1  0  0  0  0
 22 39  1  0  0  0  0
 23 40  1  0  0  0  0
 23 41  1  0  0  0  0
 23 42  1  0  0  0  0
M  END
> <From>
www.bindingDB.org

> <BindingDB Reactant_set_id>
50579852

> <Ligand InChI>
InChI=1S/C17H19N5S/c1-11-16(23-12(2)19-11)15-9-10-18-17(21-15)20-13-5-7-14(8-6-13)22(3)4/h5-10H,1-4H3,(H,18,20,21)

> <Ligand InChI Key>
FGGSNQOBRJVAKL-UHFFFAOYSA-N

> <BindingDB MonomerID>
8066

> <BindingDB Ligand Name>
2-Anilino-4-(thiazol-5-yl)pyrimidine deriv. 37::4-(dimethyl-1,3-thiazol-5-yl)pyrimidin-2-yl]-1-N,1-N-dimethylbenzene-1,4-diamine, 3::4-N-[4-(2,4-dimethyl-1,3-thiazol-5-yl)pyrimidin-2-yl]-1-N,1-N-dimethylbenzene-1,4-diamine::N-[4-(2,4-Dimethylthiazol-5-yl)pyrimidin-2-yl]N,N-dimethylbenzene-1,4-diamine

> <Target Name Assigned by Curator or DataSource>
Cyclin-dependent kinase 2

> <Target Source Organism According to Curator or DataSource>
Homo sapiens

> <Ki (nM)>
 251

> <IC50 (nM)>


> <Kd (nM)>


> <EC50 (nM)>


> <kon (M-1-s-1)>


> <koff (s-1)>


> <pH>


> <Temp C>


> <Curation/DataSource>
ChEMBL

> <Article DOI>
10.1021/jm901913s

> <PMID>
20462263

> <PubChem AID>


> <Patent Number>


> <Authors>
Wang, S; Midgley, CA; Scaerou, F; Grabarek, JB; Griffiths, G; Jackson, W; Kontopidis, G; McClue, SJ; McInnes, C; Meades, C; Mezna, M; Plater, A; Stuart, I; Thomas, MP; Wood, G; Clarke, RG; Blake, DG; Zheleva, DI; Lane, DP; Jackson, RC; Glover, DM; Fischer, PM

> <Institution>
Cyclacel Ltd

> <Link to Ligand in BindingDB>
http://www.bindingdb.org/bind/chemsearch/marvin/MolStructure.jsp?monomerid=8066

> <Link to Ligand-Target Pair in BindingDB>
http://www.bindingdb.org/jsp/dbsearch/PrimarySearch_ki.jsp?energyterm=kJ/mole&tag=pol&polymerid=796&target=Cyclin-dependent+kinase+2&column=ki&startPg=0&Increment=50&submit=Search

> <Link to Ligand-Target Pair in BindingDB>
http://www.bindingdb.org/jsp/dbsearch/PrimarySearch_ki.jsp?energyterm=kJ/mole&tag=r21&monomerid=8066&enzyme=Cyclin-dependent+kinase+2&column=ki&startPg=0&Increment=50&submit=Search

> <Ligand HET ID in PDB>
CK8

> <PDB ID(s) for Ligand-Target Complex>
1PXP,2C5N

> <PubChem CID>
447962

> <PubChem SID>
11108820

> <ChEBI ID of Ligand>


> <ChEMBL ID of Ligand>


> <DrugBank ID of Ligand>
DB07562

> <IUPHAR_GRAC ID of Ligand>


> <KEGG ID of Ligand>


> <ZINC ID of Ligand>
ZINC01912557

> <Number of Protein Chains in Target (bigger than 1 implies a multichain complex)>
1

> <BindingDB Target Chain Sequence>
MENFQKVEKIGEGTYGVVYKARNKLTGEVVALKKIRLDTETEGVPSTAIREISLLKELNHPNIVKLLDVIHTENKLYLVFEFLHQDLKKFMDASALTGIPLPLIKSYLFQLLQGLAFCHSHRVLHRDLKPQNLLINTEGAIKLADFGLARAFGVPVRTYTHEVVTLWYRAPEILLGCKYYSTAVDIWSLGCIFAEMVTRRALFPGDSEIDQLFRIFRTLGTPDEVVWPGVTSMPDYKPSFPKWARQDFSKVVPPLDEDGRSLLSQMLHYDPNKRISAKAALAHPFFQDVTKPVPHLRL

> <PDB ID(s) of Target Chain>
1CKP,1DI8,1DM2,1E1V,1E1X,1E9H,1F5Q,1FIN,1FQ1,1FVT,1FVV,1G5S,1GIH,1GY3,1GZ8,1H00,1H01,1H07,1H08,1H0V,1H0W,1H1P,1H1Q,1H1R,1H1S,1H24,1H25,1H26,1H27,1H28,1HCK,1HCL,1JST,1JSU,1JSV,1JVP,1KE5,1KE6,1KE7,1KE8,1KE9,1OGU,1OI9,1OIQ,1OIR,1OIU,1OIY,1OKV,1OKW,1OL1,1OL2,1P2A,1P5E,1PF8,1PKD,1PW2,1PXI,1PXJ,1PXK,1PXL,1PXM,1PXN,1PXO,1PXP,1PYE,1QMZ,1R78,1URC,1URW,1V1K,1VYW,1VYZ,1W0X,1W8C,1W98,1WCC,1Y8Y,1Y91,1YKR,2A0C,2A4L,2B52,2B53,2B54,2B55,2BHE,2BHH,2BKZ,2BPM,2BTR,2BTS,2C4G,2C5N,2C5O,2C5V,2C5X,2C5Y,2C68,2C69,2C6I,2C6K,2C6L,2C6M,2C6O,2C6T,2CCH,2CCI,2CJM,2CLX,2DUV,2EXM,2FVD,2G9X,2I40,2J9M,2JGZ,2R3F,2R3G,2R3H,2R3I,2R3J,2R3K,2R3L,2R3M,2R3N,2R3O,2R3P,2R3Q,2R3R,2R64,2UUE,2UZB,2UZD,2UZE,2UZL,2UZN,2UZO,2V0D,2V22,2VTA,2VTH,2VTI,2VTJ,2VTL,2VTM,2VTN,2VTO,2VTP,2VTQ,2VTR,2VTS,2VTT,2VU3,2VV9,2W05,2W06,2W17,2W1H,2WEV,2WFY,2WHB,2WIH,2WIP,2WMA,2WMB,2WPA,2WXV,2X1N,2XMY,2XNB,3BHT,3BHU,3BHV,3DDP,3DDQ,3DOG,3EID,3EJ1,3EOC,3EZR,3EZV,3F5X,3FZ1,3IG7,3IGG,3LE6,3LFN,3LFQ,3LFS,3MY5,3NS9,3PJ8,3PXF,3PXQ,3PXR,3PXY,3PXZ,3PY0,3PY1,3QHR,3QHW,3QL8,3QQF,3QQG,3QQH,3QQJ,3QQK,3QQL,3QRT,3QRU,3QTQ,3QTR,3QTS,3QTU,3QTW,3QTX,3QTZ,3QU0,3QWJ,3QWK,3QX2,3QX4,3QXO,3QXP,3QZF,3QZG,3QZH,3QZI,3R1Q,3R1S,3R1Y,3R28,3R6X,3R71,3R73,3R7E,3R7I,3R7U,3R7V,3R7Y,3R83,3R8L,3R8M,3R8P,3R8U,3R8V,3R8Z,3R9D,3R9H,3R9N,3R9O,3RAH,3RAI,3RAK,3RAL,3RJC,3RK5,3RK7,3RK9,3RKB,3RM6,3RM7,3RMF,3RNI,3ROY,3RPO,3RPR,3RPV,3RPY,3RZB,3S00,3S0O,3S1H,3S2P,3SQQ,3SW4,3SW7,3TI1,3TIY,3TIZ,3TNW,3ULI,3UNJ,3UNK,3WBL,4ACM,4BCK,4BCM,4BCN,4BCO,4BCP,4BCQ,4BGH,4BZD,4CFM,4CFN,4CFU,4CFV,4CFW,4CFX,4D1X,4D1Z,4EK3,4EK4,4EK5,4EK6,4EK8,4EOQ,4EOR,4EOS,4ERW,4EZ3,4EZ7,4FKG,4FKI,4FKJ,4FKL,4FKO,4FKP,4FKQ,4FKR,4FKS,4FKT,4FKU,4FKV,4FKW,4FX3,4GCJ,4I3Z,4II5,4KD1,4LYN,4NJ3,4RJ3,5A14,5AND,5ANE,5ANG,5ANI,5ANJ,5ANK,5ANO,5CYI,5D1J,5FP5,5FP6,5IEV,5IEX,5IEY,5IF1,5JQ5,5JQ8,5K4J,5L2W,5LMK,5MHQ,5NEV,5OO0,5OSJ,5UQ1,5UQ2,5UQ3,6ATH,6GUB,6GUC,6GUE,6GUF,6GUH,6GUK,6GVA,6INL,6JGM,6OQI,6P3W,6Q3B,6Q3C,6Q3F,6Q48,6Q49,6Q4A,6Q4B,6Q4C,6Q4D,6Q4E,6Q4F,6Q4H,6Q4J,6Q4K,6RIJ,6SG4,7ACK,7B5L,7B5R,7B7S,7E34,7KJS,7M2F,7NVQ

> <UniProt (SwissProt) Recommended Name of Target Chain>
Cyclin-dependent kinase 2

> <UniProt (SwissProt) Entry Name of Target Chain>
CDK2_HUMAN

> <UniProt (SwissProt) Primary ID of Target Chain>
P24941

> <UniProt (SwissProt) Secondary ID(s) of Target Chain>
A8K7C6,O75100

> <UniProt (SwissProt) Alternative ID(s) of Target Chain>


> <UniProt (TrEMBL) Submitted Name of Target Chain>


> <UniProt (TrEMBL) Entry Name of Target Chain>


> <UniProt (TrEMBL) Primary ID of Target Chain>
A0A024RB77

> <UniProt (TrEMBL) Secondary ID(s) of Target Chain>


> <UniProt (TrEMBL) Alternative ID(s) of Target Chain>


$$$$
BindingDB_50319622_mol_1

Vconf v2.0 Academic SN VC001-00000579
 48 50  0  0  0  0  0  0  0  0999 V2000
   12.0670   -4.7040    0.4400 C   0  0  0  0  0  0  0  0  0  0  0
   12.2240   -6.0840    0.2530 C   0  0  0  0  0  0  0  0  0  0  0
   13.4620   -6.6190    0.1510 N   0  0  0  0  0  0  0  0  0  0  0
   14.5760   -5.8560    0.2300 C   0  0  0  0  0  0  0  0  0  0  0
   14.4350   -4.5190    0.4190 N   0  0  0  0  0  0  0  0  0  0  0
   13.2270   -3.9090    0.5250 C   0  0  0  0  0  0  0  0  0  0  0
   15.7790   -6.4570    0.0790 N   0  0  0  0  0  0  0  0  0  0  0
   16.9650   -5.8060    0.0730 C   0  0  0  0  0  0  0  0  0  0  0
   17.7470   -5.8220   -1.0960 C   0  0  0  0  0  0  0  0  0  0  0
   18.9850   -5.1570   -1.1390 C   0  0  0  0  0  0  0  0  0  0  0
   19.4670   -4.5040    0.0170 C   0  0  0  0  0  0  0  0  0  0  0
   18.6830   -4.4760    1.1930 C   0  0  0  0  0  0  0  0  0  0  0
   17.4420   -5.1350    1.2140 C   0  0  0  0  0  0  0  0  0  0  0
   13.1290   -2.5110    0.6940 C   0  0  0  0  0  0  0  0  0  0  0
   11.5920   -1.7080    0.7140 S   0  0  0  0  0  0  0  0  0  0  0
   12.4510   -0.2160    0.8950 C   0  0  0  0  0  0  0  0  0  0  0
   13.7830   -0.3370    0.9540 N   0  0  0  0  0  0  0  0  0  0  0
   14.1900   -1.6090    0.8470 C   0  0  0  0  0  0  0  0  0  0  0
   15.6180   -1.9470    0.8970 C   0  0  0  0  0  0  0  0  0  0  0
   11.8500    0.9860    0.9650 N   0  0  0  0  0  0  0  0  0  0  0
   20.7000   -3.9340   -0.0010 O   0  0  0  0  0  0  0  0  0  0  0
   21.7810   -4.6600    0.5870 C   0  0  0  0  0  0  0  0  0  0  0
   19.0810   -3.8670    2.3450 O   0  0  0  0  0  0  0  0  0  0  0
   19.5080   -2.5020    2.3410 C   0  0  0  0  0  0  0  0  0  0  0
   19.6830   -5.2140   -2.3090 O   0  0  0  0  0  0  0  0  0  0  0
   20.1560   -4.0150   -2.9300 C   0  0  0  0  0  0  0  0  0  0  0
   10.4430    1.1370    0.8890 C   0  0  0  0  0  0  0  0  0  0  0
   11.1320   -4.3020    0.5130 H   0  0  0  0  0  0  0  0  0  0  0
   11.4040   -6.6880    0.1870 H   0  0  0  0  0  0  0  0  0  0  0
   15.7830   -7.4110   -0.0960 H   0  0  0  0  0  0  0  0  0  0  0
   17.4100   -6.3120   -1.9260 H   0  0  0  0  0  0  0  0  0  0  0
   16.8830   -5.1260    2.0680 H   0  0  0  0  0  0  0  0  0  0  0
   16.2080   -1.0400    1.0350 H   0  0  0  0  0  0  0  0  0  0  0
   15.8080   -2.6210    1.7330 H   0  0  0  0  0  0  0  0  0  0  0
   15.9210   -2.4260   -0.0350 H   0  0  0  0  0  0  0  0  0  0  0
   12.4030    1.7780    1.0630 H   0  0  0  0  0  0  0  0  0  0  0
   22.6920   -4.0690    0.4970 H   0  0  0  0  0  0  0  0  0  0  0
   21.5860   -4.8490    1.6430 H   0  0  0  0  0  0  0  0  0  0  0
   21.9240   -5.6090    0.0670 H   0  0  0  0  0  0  0  0  0  0  0
   19.6550   -2.1850    3.3740 H   0  0  0  0  0  0  0  0  0  0  0
   20.4500   -2.3870    1.8050 H   0  0  0  0  0  0  0  0  0  0  0
   18.7460   -1.8690    1.8840 H   0  0  0  0  0  0  0  0  0  0  0
   20.5760   -4.2690   -3.9020 H   0  0  0  0  0  0  0  0  0  0  0
   19.3330   -3.3140   -3.0760 H   0  0  0  0  0  0  0  0  0  0  0
   20.9340   -3.5430   -2.3310 H   0  0  0  0  0  0  0  0  0  0  0
   10.1930    2.1940    0.9740 H   0  0  0  0  0  0  0  0  0  0  0
   10.0760    0.7620   -0.0670 H   0  0  0  0  0  0  0  0  0  0  0
    9.9590    0.5930    1.7020 H   0  0  0  0  0  0  0  0  0  0  0
  1  2  2  0  0  0  0
  1  6  1  0  0  0  0
  1 28  1  0  0  0  0
  2  3  1  0  0  0  0
  2 29  1  0  0  0  0
  3  4  2  0  0  0  0
  4  5  1  0  0  0  0
  4  7  1  0  0  0  0
  5  6  2  0  0  0  0
  6 14  1  0  0  0  0
  7  8  1  0  0  0  0
  7 30  1  0  0  0  0
  8  9  1  0  0  0  0
  8 13  2  0  0  0  0
  9 10  2  0  0  0  0
  9 31  1  0  0  0  0
 10 11  1  0  0  0  0
 10 25  1  0  0  0  0
 11 12  2  0  0  0  0
 11 21  1  0  0  0  0
 12 13  1  0  0  0  0
 12 23  1  0  0  0  0
 13 32  1  0  0  0  0
 14 15  1  0  0  0  0
 14 18  2  0  0  0  0
 15 16  1  0  0  0  0
 16 17  2  0  0  0  0
 16 20  1  0  0  0  0
 17 18  1  0  0  0  0
 18 19  1  0  0  0  0
 19 33  1  0  0  0  0
 19 34  1  0  0  0  0
 19 35  1  0  0  0  0
 20 27  1  0  0  0  0
 20 36  1  0  0  0  0
 21 22  1  0  0  0  0
 22 37  1  0  0  0  0
 22 38  1  0  0  0  0
 22 39  1  0  0  0  0
 23 24  1  0  0  0  0
 24 40  1  0  0  0  0
 24 41  1  0  0  0  0
 24 42  1  0  0  0  0
 25 26  1  0  0  0  0
 26 43  1  0  0  0  0
 26 44  1  0  0  0  0
 26 45  1  0  0  0  0
 27 46  1  0  0  0  0
 27 47  1  0  0  0  0
 27 48  1  0  0  0  0
M  END
> <From>
www.bindingDB.org

> <BindingDB Reactant_set_id>
50579848

> <Ligand InChI>
InChI=1S/C18H21N5O3S/c1-10-16(27-18(19-2)21-10)12-6-7-20-17(23-12)22-11-8-13(24-3)15(26-5)14(9-11)25-4/h6-9H,1-5H3,(H,19,21)(H,20,22,23)

> <Ligand InChI Key>
OTACRQCAOBRLAZ-UHFFFAOYSA-N

> <BindingDB MonomerID>
50319622

> <BindingDB Ligand Name>
CHEMBL1083152::N,4-Dimethyl-5-(2-(3,4,5-trimethoxyphenylamino)pyrimidin-4-yl)thiazol-2-amine

> <Target Name Assigned by Curator or DataSource>
Cyclin-dependent kinase 2

> <Target Source Organism According to Curator or DataSource>
Homo sapiens

> <Ki (nM)>
 256

> <IC50 (nM)>


> <Kd (nM)>


> <EC50 (nM)>


> <kon (M-1-s-1)>


> <koff (s-1)>


> <pH>


> <Temp C>


> <Curation/DataSource>
ChEMBL

> <Article DOI>
10.1021/jm901913s

> <PMID>
20462263

> <PubChem AID>


> <Patent Number>


> <Authors>
Wang, S; Midgley, CA; Scaerou, F; Grabarek, JB; Griffiths, G; Jackson, W; Kontopidis, G; McClue, SJ; McInnes, C; Meades, C; Mezna, M; Plater, A; Stuart, I; Thomas, MP; Wood, G; Clarke, RG; Blake, DG; Zheleva, DI; Lane, DP; Jackson, RC; Glover, DM; Fischer, PM

> <Institution>
Cyclacel Ltd

> <Link to Ligand in BindingDB>
http://www.bindingdb.org/bind/chemsearch/marvin/MolStructure.jsp?monomerid=50319622

> <Link to Ligand-Target Pair in BindingDB>
http://www.bindingdb.org/jsp/dbsearch/PrimarySearch_ki.jsp?energyterm=kJ/mole&tag=pol&polymerid=796&target=Cyclin-dependent+kinase+2&column=ki&startPg=0&Increment=50&submit=Search

> <Link to Ligand-Target Pair in BindingDB>
http://www.bindingdb.org/jsp/dbsearch/PrimarySearch_ki.jsp?energyterm=kJ/mole&tag=r21&monomerid=50319622&enzyme=Cyclin-dependent+kinase+2&column=ki&startPg=0&Increment=50&submit=Search

> <Ligand HET ID in PDB>


> <PDB ID(s) for Ligand-Target Complex>


> <PubChem CID>
11718021

> <PubChem SID>
104153983

> <ChEBI ID of Ligand>


> <ChEMBL ID of Ligand>
CHEMBL1083152

> <DrugBank ID of Ligand>


> <IUPHAR_GRAC ID of Ligand>


> <KEGG ID of Ligand>


> <ZINC ID of Ligand>
ZINC34641505

> <Number of Protein Chains in Target (bigger than 1 implies a multichain complex)>
1

> <BindingDB Target Chain Sequence>
MENFQKVEKIGEGTYGVVYKARNKLTGEVVALKKIRLDTETEGVPSTAIREISLLKELNHPNIVKLLDVIHTENKLYLVFEFLHQDLKKFMDASALTGIPLPLIKSYLFQLLQGLAFCHSHRVLHRDLKPQNLLINTEGAIKLADFGLARAFGVPVRTYTHEVVTLWYRAPEILLGCKYYSTAVDIWSLGCIFAEMVTRRALFPGDSEIDQLFRIFRTLGTPDEVVWPGVTSMPDYKPSFPKWARQDFSKVVPPLDEDGRSLLSQMLHYDPNKRISAKAALAHPFFQDVTKPVPHLRL

> <PDB ID(s) of Target Chain>
1CKP,1DI8,1DM2,1E1V,1E1X,1E9H,1F5Q,1FIN,1FQ1,1FVT,1FVV,1G5S,1GIH,1GY3,1GZ8,1H00,1H01,1H07,1H08,1H0V,1H0W,1H1P,1H1Q,1H1R,1H1S,1H24,1H25,1H26,1H27,1H28,1HCK,1HCL,1JST,1JSU,1JSV,1JVP,1KE5,1KE6,1KE7,1KE8,1KE9,1OGU,1OI9,1OIQ,1OIR,1OIU,1OIY,1OKV,1OKW,1OL1,1OL2,1P2A,1P5E,1PF8,1PKD,1PW2,1PXI,1PXJ,1PXK,1PXL,1PXM,1PXN,1PXO,1PXP,1PYE,1QMZ,1R78,1URC,1URW,1V1K,1VYW,1VYZ,1W0X,1W8C,1W98,1WCC,1Y8Y,1Y91,1YKR,2A0C,2A4L,2B52,2B53,2B54,2B55,2BHE,2BHH,2BKZ,2BPM,2BTR,2BTS,2C4G,2C5N,2C5O,2C5V,2C5X,2C5Y,2C68,2C69,2C6I,2C6K,2C6L,2C6M,2C6O,2C6T,2CCH,2CCI,2CJM,2CLX,2DUV,2EXM,2FVD,2G9X,2I40,2J9M,2JGZ,2R3F,2R3G,2R3H,2R3I,2R3J,2R3K,2R3L,2R3M,2R3N,2R3O,2R3P,2R3Q,2R3R,2R64,2UUE,2UZB,2UZD,2UZE,2UZL,2UZN,2UZO,2V0D,2V22,2VTA,2VTH,2VTI,2VTJ,2VTL,2VTM,2VTN,2VTO,2VTP,2VTQ,2VTR,2VTS,2VTT,2VU3,2VV9,2W05,2W06,2W17,2W1H,2WEV,2WFY,2WHB,2WIH,2WIP,2WMA,2WMB,2WPA,2WXV,2X1N,2XMY,2XNB,3BHT,3BHU,3BHV,3DDP,3DDQ,3DOG,3EID,3EJ1,3EOC,3EZR,3EZV,3F5X,3FZ1,3IG7,3IGG,3LE6,3LFN,3LFQ,3LFS,3MY5,3NS9,3PJ8,3PXF,3PXQ,3PXR,3PXY,3PXZ,3PY0,3PY1,3QHR,3QHW,3QL8,3QQF,3QQG,3QQH,3QQJ,3QQK,3QQL,3QRT,3QRU,3QTQ,3QTR,3QTS,3QTU,3QTW,3QTX,3QTZ,3QU0,3QWJ,3QWK,3QX2,3QX4,3QXO,3QXP,3QZF,3QZG,3QZH,3QZI,3R1Q,3R1S,3R1Y,3R28,3R6X,3R71,3R73,3R7E,3R7I,3R7U,3R7V,3R7Y,3R83,3R8L,3R8M,3R8P,3R8U,3R8V,3R8Z,3R9D,3R9H,3R9N,3R9O,3RAH,3RAI,3RAK,3RAL,3RJC,3RK5,3RK7,3RK9,3RKB,3RM6,3RM7,3RMF,3RNI,3ROY,3RPO,3RPR,3RPV,3RPY,3RZB,3S00,3S0O,3S1H,3S2P,3SQQ,3SW4,3SW7,3TI1,3TIY,3TIZ,3TNW,3ULI,3UNJ,3UNK,3WBL,4ACM,4BCK,4BCM,4BCN,4BCO,4BCP,4BCQ,4BGH,4BZD,4CFM,4CFN,4CFU,4CFV,4CFW,4CFX,4D1X,4D1Z,4EK3,4EK4,4EK5,4EK6,4EK8,4EOQ,4EOR,4EOS,4ERW,4EZ3,4EZ7,4FKG,4FKI,4FKJ,4FKL,4FKO,4FKP,4FKQ,4FKR,4FKS,4FKT,4FKU,4FKV,4FKW,4FX3,4GCJ,4I3Z,4II5,4KD1,4LYN,4NJ3,4RJ3,5A14,5AND,5ANE,5ANG,5ANI,5ANJ,5ANK,5ANO,5CYI,5D1J,5FP5,5FP6,5IEV,5IEX,5IEY,5IF1,5JQ5,5JQ8,5K4J,5L2W,5LMK,5MHQ,5NEV,5OO0,5OSJ,5UQ1,5UQ2,5UQ3,6ATH,6GUB,6GUC,6GUE,6GUF,6GUH,6GUK,6GVA,6INL,6JGM,6OQI,6P3W,6Q3B,6Q3C,6Q3F,6Q48,6Q49,6Q4A,6Q4B,6Q4C,6Q4D,6Q4E,6Q4F,6Q4H,6Q4J,6Q4K,6RIJ,6SG4,7ACK,7B5L,7B5R,7B7S,7E34,7KJS,7M2F,7NVQ

> <UniProt (SwissProt) Recommended Name of Target Chain>
Cyclin-dependent kinase 2

> <UniProt (SwissProt) Entry Name of Target Chain>
CDK2_HUMAN

> <UniProt (SwissProt) Primary ID of Target Chain>
P24941

> <UniProt (SwissProt) Secondary ID(s) of Target Chain>
A8K7C6,O75100

> <UniProt (SwissProt) Alternative ID(s) of Target Chain>


> <UniProt (TrEMBL) Submitted Name of Target Chain>


> <UniProt (TrEMBL) Entry Name of Target Chain>


> <UniProt (TrEMBL) Primary ID of Target Chain>
A0A024RB77

> <UniProt (TrEMBL) Secondary ID(s) of Target Chain>


> <UniProt (TrEMBL) Alternative ID(s) of Target Chain>


$$$$
BindingDB_50319625_mol_1

Vconf v2.0 Academic SN VC001-00000579
 39 41  0  0  0  0  0  0  0  0999 V2000
   12.4600    1.2190    0.4500 C   0  0  0  0  0  0  0  0  0  0  0
   12.6430   -0.1670    0.3660 C   0  0  0  0  0  0  0  0  0  0  0
   13.8920   -0.6840    0.3130 N   0  0  0  0  0  0  0  0  0  0  0
   14.9920    0.1030    0.3420 C   0  0  0  0  0  0  0  0  0  0  0
   14.8240    1.4480    0.4220 N   0  0  0  0  0  0  0  0  0  0  0
   13.6030    2.0400    0.4750 C   0  0  0  0  0  0  0  0  0  0  0
   16.2050   -0.4960    0.2710 N   0  0  0  0  0  0  0  0  0  0  0
   17.4030    0.1390    0.2770 C   0  0  0  0  0  0  0  0  0  0  0
   17.7440    1.0970    1.2530 C   0  0  0  0  0  0  0  0  0  0  0
   19.0030    1.7210    1.2280 C   0  0  0  0  0  0  0  0  0  0  0
   19.9480    1.3850    0.2360 C   0  0  0  0  0  0  0  0  0  0  0
   19.6120    0.4120   -0.7250 C   0  0  0  0  0  0  0  0  0  0  0
   18.3510   -0.2090   -0.7020 C   0  0  0  0  0  0  0  0  0  0  0
   13.4730    3.4440    0.5450 C   0  0  0  0  0  0  0  0  0  0  0
   11.9150    4.2020    0.5970 S   0  0  0  0  0  0  0  0  0  0  0
   12.7340    5.7250    0.6480 C   0  0  0  0  0  0  0  0  0  0  0
   14.0710    5.6490    0.6280 N   0  0  0  0  0  0  0  0  0  0  0
   14.5100    4.3840    0.5700 C   0  0  0  0  0  0  0  0  0  0  0
   15.9480    4.0930    0.5490 C   0  0  0  0  0  0  0  0  0  0  0
   12.0150    6.9960    0.7120 C   0  0  0  0  0  0  0  0  0  0  0
   21.1770    1.9530    0.1600 N   0  0  0  0  0  0  0  0  0  0  0
   21.6510    2.9720    1.0280 C   0  0  0  0  0  0  0  0  0  0  0
   11.5170    1.6080    0.4870 H   0  0  0  0  0  0  0  0  0  0  0
   11.8340   -0.7880    0.3420 H   0  0  0  0  0  0  0  0  0  0  0
   16.2110   -1.4580    0.1580 H   0  0  0  0  0  0  0  0  0  0  0
   17.0760    1.3430    1.9840 H   0  0  0  0  0  0  0  0  0  0  0
   19.2270    2.4180    1.9380 H   0  0  0  0  0  0  0  0  0  0  0
   20.2850    0.1530   -1.4460 H   0  0  0  0  0  0  0  0  0  0  0
   18.1240   -0.9110   -1.4070 H   0  0  0  0  0  0  0  0  0  0  0
   16.5170    5.0240    0.5560 H   0  0  0  0  0  0  0  0  0  0  0
   16.2140    3.5130    1.4320 H   0  0  0  0  0  0  0  0  0  0  0
   16.2020    3.5310   -0.3510 H   0  0  0  0  0  0  0  0  0  0  0
   12.7210    7.8250    0.7390 H   0  0  0  0  0  0  0  0  0  0  0
   11.3770    7.0940   -0.1660 H   0  0  0  0  0  0  0  0  0  0  0
   11.3990    7.0170    1.6110 H   0  0  0  0  0  0  0  0  0  0  0
   21.7740    1.6450   -0.5400 H   0  0  0  0  0  0  0  0  0  0  0
   22.6640    3.2450    0.7340 H   0  0  0  0  0  0  0  0  0  0  0
   21.0120    3.8540    0.9580 H   0  0  0  0  0  0  0  0  0  0  0
   21.6660    2.6120    2.0580 H   0  0  0  0  0  0  0  0  0  0  0
  1  2  1  0  0  0  0
  1  6  2  0  0  0  0
  1 23  1  0  0  0  0
  2  3  2  0  0  0  0
  2 24  1  0  0  0  0
  3  4  1  0  0  0  0
  4  5  2  0  0  0  0
  4  7  1  0  0  0  0
  5  6  1  0  0  0  0
  6 14  1  0  0  0  0
  7  8  1  0  0  0  0
  7 25  1  0  0  0  0
  8  9  1  0  0  0  0
  8 13  2  0  0  0  0
  9 10  2  0  0  0  0
  9 26  1  0  0  0  0
 10 11  1  0  0  0  0
 10 27  1  0  0  0  0
 11 12  2  0  0  0  0
 11 21  1  0  0  0  0
 12 13  1  0  0  0  0
 12 28  1  0  0  0  0
 13 29  1  0  0  0  0
 14 15  1  0  0  0  0
 14 18  2  0  0  0  0
 15 16  1  0  0  0  0
 16 17  2  0  0  0  0
 16 20  1  0  0  0  0
 17 18  1  0  0  0  0
 18 19  1  0  0  0  0
 19 30  1  0  0  0  0
 19 31  1  0  0  0  0
 19 32  1  0  0  0  0
 20 33  1  0  0  0  0
 20 34  1  0  0  0  0
 20 35  1  0  0  0  0
 21 22  1  0  0  0  0
 21 36  1  0  0  0  0
 22 37  1  0  0  0  0
 22 38  1  0  0  0  0
 22 39  1  0  0  0  0
M  END
> <From>
www.bindingDB.org

> <BindingDB Reactant_set_id>
50579851

> <Ligand InChI>
InChI=1S/C16H17N5S/c1-10-15(22-11(2)19-10)14-8-9-18-16(21-14)20-13-6-4-12(17-3)5-7-13/h4-9,17H,1-3H3,(H,18,20,21)

> <Ligand InChI Key>
BFNPREZASZQRTJ-UHFFFAOYSA-N

> <BindingDB MonomerID>
50319625

> <BindingDB Ligand Name>
CHEMBL1083150::N1-(4-(2,4-Dimethylthiazol-5-yl)pyrimidin-2-yl)-N4-methylbenzene-1,4-diamine

> <Target Name Assigned by Curator or DataSource>
Cyclin-dependent kinase 2

> <Target Source Organism According to Curator or DataSource>
Homo sapiens

> <Ki (nM)>
 286

> <IC50 (nM)>


> <Kd (nM)>


> <EC50 (nM)>


> <kon (M-1-s-1)>


> <koff (s-1)>


> <pH>


> <Temp C>


> <Curation/DataSource>
ChEMBL

> <Article DOI>
10.1021/jm901913s

> <PMID>
20462263

> <PubChem AID>


> <Patent Number>


> <Authors>
Wang, S; Midgley, CA; Scaerou, F; Grabarek, JB; Griffiths, G; Jackson, W; Kontopidis, G; McClue, SJ; McInnes, C; Meades, C; Mezna, M; Plater, A; Stuart, I; Thomas, MP; Wood, G; Clarke, RG; Blake, DG; Zheleva, DI; Lane, DP; Jackson, RC; Glover, DM; Fischer, PM

> <Institution>
Cyclacel Ltd

> <Link to Ligand in BindingDB>
http://www.bindingdb.org/bind/chemsearch/marvin/MolStructure.jsp?monomerid=50319625

> <Link to Ligand-Target Pair in BindingDB>
http://www.bindingdb.org/jsp/dbsearch/PrimarySearch_ki.jsp?energyterm=kJ/mole&tag=pol&polymerid=796&target=Cyclin-dependent+kinase+2&column=ki&startPg=0&Increment=50&submit=Search

> <Link to Ligand-Target Pair in BindingDB>
http://www.bindingdb.org/jsp/dbsearch/PrimarySearch_ki.jsp?energyterm=kJ/mole&tag=r21&monomerid=50319625&enzyme=Cyclin-dependent+kinase+2&column=ki&startPg=0&Increment=50&submit=Search

> <Ligand HET ID in PDB>


> <PDB ID(s) for Ligand-Target Complex>


> <PubChem CID>
46830766

> <PubChem SID>
104153986

> <ChEBI ID of Ligand>


> <ChEMBL ID of Ligand>
CHEMBL1083150

> <DrugBank ID of Ligand>


> <IUPHAR_GRAC ID of Ligand>


> <KEGG ID of Ligand>


> <ZINC ID of Ligand>
ZINC49034924

> <Number of Protein Chains in Target (bigger than 1 implies a multichain complex)>
1

> <BindingDB Target Chain Sequence>
MENFQKVEKIGEGTYGVVYKARNKLTGEVVALKKIRLDTETEGVPSTAIREISLLKELNHPNIVKLLDVIHTENKLYLVFEFLHQDLKKFMDASALTGIPLPLIKSYLFQLLQGLAFCHSHRVLHRDLKPQNLLINTEGAIKLADFGLARAFGVPVRTYTHEVVTLWYRAPEILLGCKYYSTAVDIWSLGCIFAEMVTRRALFPGDSEIDQLFRIFRTLGTPDEVVWPGVTSMPDYKPSFPKWARQDFSKVVPPLDEDGRSLLSQMLHYDPNKRISAKAALAHPFFQDVTKPVPHLRL

> <PDB ID(s) of Target Chain>
1CKP,1DI8,1DM2,1E1V,1E1X,1E9H,1F5Q,1FIN,1FQ1,1FVT,1FVV,1G5S,1GIH,1GY3,1GZ8,1H00,1H01,1H07,1H08,1H0V,1H0W,1H1P,1H1Q,1H1R,1H1S,1H24,1H25,1H26,1H27,1H28,1HCK,1HCL,1JST,1JSU,1JSV,1JVP,1KE5,1KE6,1KE7,1KE8,1KE9,1OGU,1OI9,1OIQ,1OIR,1OIU,1OIY,1OKV,1OKW,1OL1,1OL2,1P2A,1P5E,1PF8,1PKD,1PW2,1PXI,1PXJ,1PXK,1PXL,1PXM,1PXN,1PXO,1PXP,1PYE,1QMZ,1R78,1URC,1URW,1V1K,1VYW,1VYZ,1W0X,1W8C,1W98,1WCC,1Y8Y,1Y91,1YKR,2A0C,2A4L,2B52,2B53,2B54,2B55,2BHE,2BHH,2BKZ,2BPM,2BTR,2BTS,2C4G,2C5N,2C5O,2C5V,2C5X,2C5Y,2C68,2C69,2C6I,2C6K,2C6L,2C6M,2C6O,2C6T,2CCH,2CCI,2CJM,2CLX,2DUV,2EXM,2FVD,2G9X,2I40,2J9M,2JGZ,2R3F,2R3G,2R3H,2R3I,2R3J,2R3K,2R3L,2R3M,2R3N,2R3O,2R3P,2R3Q,2R3R,2R64,2UUE,2UZB,2UZD,2UZE,2UZL,2UZN,2UZO,2V0D,2V22,2VTA,2VTH,2VTI,2VTJ,2VTL,2VTM,2VTN,2VTO,2VTP,2VTQ,2VTR,2VTS,2VTT,2VU3,2VV9,2W05,2W06,2W17,2W1H,2WEV,2WFY,2WHB,2WIH,2WIP,2WMA,2WMB,2WPA,2WXV,2X1N,2XMY,2XNB,3BHT,3BHU,3BHV,3DDP,3DDQ,3DOG,3EID,3EJ1,3EOC,3EZR,3EZV,3F5X,3FZ1,3IG7,3IGG,3LE6,3LFN,3LFQ,3LFS,3MY5,3NS9,3PJ8,3PXF,3PXQ,3PXR,3PXY,3PXZ,3PY0,3PY1,3QHR,3QHW,3QL8,3QQF,3QQG,3QQH,3QQJ,3QQK,3QQL,3QRT,3QRU,3QTQ,3QTR,3QTS,3QTU,3QTW,3QTX,3QTZ,3QU0,3QWJ,3QWK,3QX2,3QX4,3QXO,3QXP,3QZF,3QZG,3QZH,3QZI,3R1Q,3R1S,3R1Y,3R28,3R6X,3R71,3R73,3R7E,3R7I,3R7U,3R7V,3R7Y,3R83,3R8L,3R8M,3R8P,3R8U,3R8V,3R8Z,3R9D,3R9H,3R9N,3R9O,3RAH,3RAI,3RAK,3RAL,3RJC,3RK5,3RK7,3RK9,3RKB,3RM6,3RM7,3RMF,3RNI,3ROY,3RPO,3RPR,3RPV,3RPY,3RZB,3S00,3S0O,3S1H,3S2P,3SQQ,3SW4,3SW7,3TI1,3TIY,3TIZ,3TNW,3ULI,3UNJ,3UNK,3WBL,4ACM,4BCK,4BCM,4BCN,4BCO,4BCP,4BCQ,4BGH,4BZD,4CFM,4CFN,4CFU,4CFV,4CFW,4CFX,4D1X,4D1Z,4EK3,4EK4,4EK5,4EK6,4EK8,4EOQ,4EOR,4EOS,4ERW,4EZ3,4EZ7,4FKG,4FKI,4FKJ,4FKL,4FKO,4FKP,4FKQ,4FKR,4FKS,4FKT,4FKU,4FKV,4FKW,4FX3,4GCJ,4I3Z,4II5,4KD1,4LYN,4NJ3,4RJ3,5A14,5AND,5ANE,5ANG,5ANI,5ANJ,5ANK,5ANO,5CYI,5D1J,5FP5,5FP6,5IEV,5IEX,5IEY,5IF1,5JQ5,5JQ8,5K4J,5L2W,5LMK,5MHQ,5NEV,5OO0,5OSJ,5UQ1,5UQ2,5UQ3,6ATH,6GUB,6GUC,6GUE,6GUF,6GUH,6GUK,6GVA,6INL,6JGM,6OQI,6P3W,6Q3B,6Q3C,6Q3F,6Q48,6Q49,6Q4A,6Q4B,6Q4C,6Q4D,6Q4E,6Q4F,6Q4H,6Q4J,6Q4K,6RIJ,6SG4,7ACK,7B5L,7B5R,7B7S,7E34,7KJS,7M2F,7NVQ

> <UniProt (SwissProt) Recommended Name of Target Chain>
Cyclin-dependent kinase 2

> <UniProt (SwissProt) Entry Name of Target Chain>
CDK2_HUMAN

> <UniProt (SwissProt) Primary ID of Target Chain>
P24941

> <UniProt (SwissProt) Secondary ID(s) of Target Chain>
A8K7C6,O75100

> <UniProt (SwissProt) Alternative ID(s) of Target Chain>


> <UniProt (TrEMBL) Submitted Name of Target Chain>


> <UniProt (TrEMBL) Entry Name of Target Chain>


> <UniProt (TrEMBL) Primary ID of Target Chain>
A0A024RB77

> <UniProt (TrEMBL) Secondary ID(s) of Target Chain>


> <UniProt (TrEMBL) Alternative ID(s) of Target Chain>


$$$$
BindingDB_50319615_mol_1

Vconf v2.0 Academic SN VC001-00000579
 55 58  0  0  0  0  0  0  0  0999 V2000
    4.3510  -24.2110    0.3040 C   0  0  0  0  0  0  0  0  0  0  0
    4.5730  -25.5880    0.1660 C   0  0  0  0  0  0  0  0  0  0  0
    5.8370  -26.0720    0.1480 N   0  0  0  0  0  0  0  0  0  0  0
    6.9130  -25.2600    0.2670 C   0  0  0  0  0  0  0  0  0  0  0
    6.7070  -23.9250    0.4020 N   0  0  0  0  0  0  0  0  0  0  0
    5.4700  -23.3660    0.4240 C   0  0  0  0  0  0  0  0  0  0  0
    8.1420  -25.8240    0.2210 N   0  0  0  0  0  0  0  0  0  0  0
    9.3200  -25.1590    0.3130 C   0  0  0  0  0  0  0  0  0  0  0
   10.3080  -25.4110   -0.6560 C   0  0  0  0  0  0  0  0  0  0  0
   11.5520  -24.7600   -0.5900 C   0  0  0  0  0  0  0  0  0  0  0
   11.8270  -23.8590    0.4570 C   0  0  0  0  0  0  0  0  0  0  0
   10.8450  -23.6170    1.4360 C   0  0  0  0  0  0  0  0  0  0  0
    9.6010  -24.2670    1.3680 C   0  0  0  0  0  0  0  0  0  0  0
    5.3010  -21.9710    0.5520 C   0  0  0  0  0  0  0  0  0  0  0
    3.7220  -21.2550    0.5540 S   0  0  0  0  0  0  0  0  0  0  0
    4.4980  -19.7160    0.7130 C   0  0  0  0  0  0  0  0  0  0  0
    5.8350  -19.7590    0.7640 N   0  0  0  0  0  0  0  0  0  0  0
    6.3100  -21.0090    0.6770 C   0  0  0  0  0  0  0  0  0  0  0
    7.7540  -21.2640    0.7240 C   0  0  0  0  0  0  0  0  0  0  0
    3.8260  -18.5540    0.7830 N   0  0  0  0  0  0  0  0  0  0  0
   13.0300  -23.2320    0.5210 N   0  0  0  0  0  0  0  0  0  0  0
   13.4550  -22.3260   -0.4970 C   0  0  0  0  0  0  0  0  0  0  0
   13.7640  -20.9620    0.1420 C   0  0  0  0  0  0  0  0  0  0  0
   14.6670  -21.1430    1.2390 N   0  0  0  0  0  0  0  0  0  0  0
   14.2150  -22.0420    2.2580 C   0  0  0  0  0  0  0  0  0  0  0
   13.9110  -23.4120    1.6300 C   0  0  0  0  0  0  0  0  0  0  0
   15.8840  -20.5260    1.3150 C   0  0  0  0  0  0  0  0  0  0  0
   16.6340  -20.7290    2.2970 O   0  0  0  0  0  0  0  0  0  0  0
   16.3740  -19.6140    0.2760 C   0  0  0  0  0  0  0  0  0  0  0
    2.4120  -18.5000    0.7300 C   0  0  0  0  0  0  0  0  0  0  0
    3.3970  -23.8480    0.3130 H   0  0  0  0  0  0  0  0  0  0  0
    3.7830  -26.2260    0.0760 H   0  0  0  0  0  0  0  0  0  0  0
    8.1810  -26.7790    0.0590 H   0  0  0  0  0  0  0  0  0  0  0
   10.1230  -26.0660   -1.4180 H   0  0  0  0  0  0  0  0  0  0  0
   12.2590  -24.9470   -1.3020 H   0  0  0  0  0  0  0  0  0  0  0
   11.0340  -22.9680    2.2010 H   0  0  0  0  0  0  0  0  0  0  0
    8.9010  -24.0900    2.0890 H   0  0  0  0  0  0  0  0  0  0  0
    8.2960  -20.3220    0.8070 H   0  0  0  0  0  0  0  0  0  0  0
    7.9870  -21.8820    1.5910 H   0  0  0  0  0  0  0  0  0  0  0
    8.0720  -21.7750   -0.1860 H   0  0  0  0  0  0  0  0  0  0  0
    4.3280  -17.7290    0.8730 H   0  0  0  0  0  0  0  0  0  0  0
   12.6940  -22.1910   -1.2690 H   0  0  0  0  0  0  0  0  0  0  0
   14.3620  -22.7130   -0.9650 H   0  0  0  0  0  0  0  0  0  0  0
   14.1550  -20.2990   -0.6300 H   0  0  0  0  0  0  0  0  0  0  0
   12.8340  -20.5330    0.5200 H   0  0  0  0  0  0  0  0  0  0  0
   13.3000  -21.6450    2.7010 H   0  0  0  0  0  0  0  0  0  0  0
   14.9490  -22.1800    3.0550 H   0  0  0  0  0  0  0  0  0  0  0
   13.4850  -24.0690    2.3910 H   0  0  0  0  0  0  0  0  0  0  0
   14.8430  -23.8530    1.2750 H   0  0  0  0  0  0  0  0  0  0  0
   17.3610  -19.2370    0.5440 H   0  0  0  0  0  0  0  0  0  0  0
   16.4430  -20.1450   -0.6730 H   0  0  0  0  0  0  0  0  0  0  0
   15.6880  -18.7720    0.1770 H   0  0  0  0  0  0  0  0  0  0  0
    2.0910  -17.4610    0.8120 H   0  0  0  0  0  0  0  0  0  0  0
    2.0550  -18.9080   -0.2170 H   0  0  0  0  0  0  0  0  0  0  0
    1.9820  -19.0700    1.5560 H   0  0  0  0  0  0  0  0  0  0  0
  1  2  1  0  0  0  0
  1  6  2  0  0  0  0
  1 31  1  0  0  0  0
  2  3  2  0  0  0  0
  2 32  1  0  0  0  0
  3  4  1  0  0  0  0
  4  5  2  0  0  0  0
  4  7  1  0  0  0  0
  5  6  1  0  0  0  0
  6 14  1  0  0  0  0
  7  8  1  0  0  0  0
  7 33  1  0  0  0  0
  8  9  2  0  0  0  0
  8 13  1  0  0  0  0
  9 10  1  0  0  0  0
  9 34  1  0  0  0  0
 10 11  2  0  0  0  0
 10 35  1  0  0  0  0
 11 12  1  0  0  0  0
 11 21  1  0  0  0  0
 12 13  2  0  0  0  0
 12 36  1  0  0  0  0
 13 37  1  0  0  0  0
 14 15  1  0  0  0  0
 14 18  2  0  0  0  0
 15 16  1  0  0  0  0
 16 17  2  0  0  0  0
 16 20  1  0  0  0  0
 17 18  1  0  0  0  0
 18 19  1  0  0  0  0
 19 38  1  0  0  0  0
 19 39  1  0  0  0  0
 19 40  1  0  0  0  0
 20 30  1  0  0  0  0
 20 41  1  0  0  0  0
 21 22  1  0  0  0  0
 21 26  1  0  0  0  0
 22 23  1  0  0  0  0
 22 42  1  0  0  0  0
 22 43  1  0  0  0  0
 23 24  1  0  0  0  0
 23 44  1  0  0  0  0
 23 45  1  0  0  0  0
 24 25  1  0  0  0  0
 24 27  1  0  0  0  0
 25 26  1  0  0  0  0
 25 46  1  0  0  0  0
 25 47  1  0  0  0  0
 26 48  1  0  0  0  0
 26 49  1  0  0  0  0
 27 28  2  0  0  0  0
 27 29  1  0  0  0  0
 29 50  1  0  0  0  0
 29 51  1  0  0  0  0
 29 52  1  0  0  0  0
 30 53  1  0  0  0  0
 30 54  1  0  0  0  0
 30 55  1  0  0  0  0
M  END
> <From>
www.bindingDB.org

> <BindingDB Reactant_set_id>
50579841

> <Ligand InChI>
InChI=1S/C21H25N7OS/c1-14-19(30-21(22-3)24-14)18-8-9-23-20(26-18)25-16-4-6-17(7-5-16)28-12-10-27(11-13-28)15(2)29/h4-9H,10-13H2,1-3H3,(H,22,24)(H,23,25,26)

> <Ligand InChI Key>
QLNAEPZXTGNWCX-UHFFFAOYSA-N

> <BindingDB MonomerID>
50319615

> <BindingDB Ligand Name>
1-(4-(4-(4-(4-Methyl-2-(methylamino)thiazol-5-yl)pyrimidin-2-ylamino)phenyl)piperazin-1-yl)ethanone::CHEMBL1083785

> <Target Name Assigned by Curator or DataSource>
Cyclin-dependent kinase 2

> <Target Source Organism According to Curator or DataSource>
Homo sapiens

> <Ki (nM)>
 297

> <IC50 (nM)>


> <Kd (nM)>


> <EC50 (nM)>


> <kon (M-1-s-1)>


> <koff (s-1)>


> <pH>


> <Temp C>


> <Curation/DataSource>
ChEMBL

> <Article DOI>
10.1021/jm901913s

> <PMID>
20462263

> <PubChem AID>


> <Patent Number>


> <Authors>
Wang, S; Midgley, CA; Scaerou, F; Grabarek, JB; Griffiths, G; Jackson, W; Kontopidis, G; McClue, SJ; McInnes, C; Meades, C; Mezna, M; Plater, A; Stuart, I; Thomas, MP; Wood, G; Clarke, RG; Blake, DG; Zheleva, DI; Lane, DP; Jackson, RC; Glover, DM; Fischer, PM

> <Institution>
Cyclacel Ltd

> <Link to Ligand in BindingDB>
http://www.bindingdb.org/bind/chemsearch/marvin/MolStructure.jsp?monomerid=50319615

> <Link to Ligand-Target Pair in BindingDB>
http://www.bindingdb.org/jsp/dbsearch/PrimarySearch_ki.jsp?energyterm=kJ/mole&tag=pol&polymerid=796&target=Cyclin-dependent+kinase+2&column=ki&startPg=0&Increment=50&submit=Search

> <Link to Ligand-Target Pair in BindingDB>
http://www.bindingdb.org/jsp/dbsearch/PrimarySearch_ki.jsp?energyterm=kJ/mole&tag=r21&monomerid=50319615&enzyme=Cyclin-dependent+kinase+2&column=ki&startPg=0&Increment=50&submit=Search

> <Ligand HET ID in PDB>


> <PDB ID(s) for Ligand-Target Complex>


> <PubChem CID>
10320107

> <PubChem SID>
104153976

> <ChEBI ID of Ligand>


> <ChEMBL ID of Ligand>
CHEMBL1083785

> <DrugBank ID of Ligand>


> <IUPHAR_GRAC ID of Ligand>


> <KEGG ID of Ligand>


> <ZINC ID of Ligand>
ZINC38513035

> <Number of Protein Chains in Target (bigger than 1 implies a multichain complex)>
1

> <BindingDB Target Chain Sequence>
MENFQKVEKIGEGTYGVVYKARNKLTGEVVALKKIRLDTETEGVPSTAIREISLLKELNHPNIVKLLDVIHTENKLYLVFEFLHQDLKKFMDASALTGIPLPLIKSYLFQLLQGLAFCHSHRVLHRDLKPQNLLINTEGAIKLADFGLARAFGVPVRTYTHEVVTLWYRAPEILLGCKYYSTAVDIWSLGCIFAEMVTRRALFPGDSEIDQLFRIFRTLGTPDEVVWPGVTSMPDYKPSFPKWARQDFSKVVPPLDEDGRSLLSQMLHYDPNKRISAKAALAHPFFQDVTKPVPHLRL

> <PDB ID(s) of Target Chain>
1CKP,1DI8,1DM2,1E1V,1E1X,1E9H,1F5Q,1FIN,1FQ1,1FVT,1FVV,1G5S,1GIH,1GY3,1GZ8,1H00,1H01,1H07,1H08,1H0V,1H0W,1H1P,1H1Q,1H1R,1H1S,1H24,1H25,1H26,1H27,1H28,1HCK,1HCL,1JST,1JSU,1JSV,1JVP,1KE5,1KE6,1KE7,1KE8,1KE9,1OGU,1OI9,1OIQ,1OIR,1OIU,1OIY,1OKV,1OKW,1OL1,1OL2,1P2A,1P5E,1PF8,1PKD,1PW2,1PXI,1PXJ,1PXK,1PXL,1PXM,1PXN,1PXO,1PXP,1PYE,1QMZ,1R78,1URC,1URW,1V1K,1VYW,1VYZ,1W0X,1W8C,1W98,1WCC,1Y8Y,1Y91,1YKR,2A0C,2A4L,2B52,2B53,2B54,2B55,2BHE,2BHH,2BKZ,2BPM,2BTR,2BTS,2C4G,2C5N,2C5O,2C5V,2C5X,2C5Y,2C68,2C69,2C6I,2C6K,2C6L,2C6M,2C6O,2C6T,2CCH,2CCI,2CJM,2CLX,2DUV,2EXM,2FVD,2G9X,2I40,2J9M,2JGZ,2R3F,2R3G,2R3H,2R3I,2R3J,2R3K,2R3L,2R3M,2R3N,2R3O,2R3P,2R3Q,2R3R,2R64,2UUE,2UZB,2UZD,2UZE,2UZL,2UZN,2UZO,2V0D,2V22,2VTA,2VTH,2VTI,2VTJ,2VTL,2VTM,2VTN,2VTO,2VTP,2VTQ,2VTR,2VTS,2VTT,2VU3,2VV9,2W05,2W06,2W17,2W1H,2WEV,2WFY,2WHB,2WIH,2WIP,2WMA,2WMB,2WPA,2WXV,2X1N,2XMY,2XNB,3BHT,3BHU,3BHV,3DDP,3DDQ,3DOG,3EID,3EJ1,3EOC,3EZR,3EZV,3F5X,3FZ1,3IG7,3IGG,3LE6,3LFN,3LFQ,3LFS,3MY5,3NS9,3PJ8,3PXF,3PXQ,3PXR,3PXY,3PXZ,3PY0,3PY1,3QHR,3QHW,3QL8,3QQF,3QQG,3QQH,3QQJ,3QQK,3QQL,3QRT,3QRU,3QTQ,3QTR,3QTS,3QTU,3QTW,3QTX,3QTZ,3QU0,3QWJ,3QWK,3QX2,3QX4,3QXO,3QXP,3QZF,3QZG,3QZH,3QZI,3R1Q,3R1S,3R1Y,3R28,3R6X,3R71,3R73,3R7E,3R7I,3R7U,3R7V,3R7Y,3R83,3R8L,3R8M,3R8P,3R8U,3R8V,3R8Z,3R9D,3R9H,3R9N,3R9O,3RAH,3RAI,3RAK,3RAL,3RJC,3RK5,3RK7,3RK9,3RKB,3RM6,3RM7,3RMF,3RNI,3ROY,3RPO,3RPR,3RPV,3RPY,3RZB,3S00,3S0O,3S1H,3S2P,3SQQ,3SW4,3SW7,3TI1,3TIY,3TIZ,3TNW,3ULI,3UNJ,3UNK,3WBL,4ACM,4BCK,4BCM,4BCN,4BCO,4BCP,4BCQ,4BGH,4BZD,4CFM,4CFN,4CFU,4CFV,4CFW,4CFX,4D1X,4D1Z,4EK3,4EK4,4EK5,4EK6,4EK8,4EOQ,4EOR,4EOS,4ERW,4EZ3,4EZ7,4FKG,4FKI,4FKJ,4FKL,4FKO,4FKP,4FKQ,4FKR,4FKS,4FKT,4FKU,4FKV,4FKW,4FX3,4GCJ,4I3Z,4II5,4KD1,4LYN,4NJ3,4RJ3,5A14,5AND,5ANE,5ANG,5ANI,5ANJ,5ANK,5ANO,5CYI,5D1J,5FP5,5FP6,5IEV,5IEX,5IEY,5IF1,5JQ5,5JQ8,5K4J,5L2W,5LMK,5MHQ,5NEV,5OO0,5OSJ,5UQ1,5UQ2,5UQ3,6ATH,6GUB,6GUC,6GUE,6GUF,6GUH,6GUK,6GVA,6INL,6JGM,6OQI,6P3W,6Q3B,6Q3C,6Q3F,6Q48,6Q49,6Q4A,6Q4B,6Q4C,6Q4D,6Q4E,6Q4F,6Q4H,6Q4J,6Q4K,6RIJ,6SG4,7ACK,7B5L,7B5R,7B7S,7E34,7KJS,7M2F,7NVQ

> <UniProt (SwissProt) Recommended Name of Target Chain>
Cyclin-dependent kinase 2

> <UniProt (SwissProt) Entry Name of Target Chain>
CDK2_HUMAN

> <UniProt (SwissProt) Primary ID of Target Chain>
P24941

> <UniProt (SwissProt) Secondary ID(s) of Target Chain>
A8K7C6,O75100

> <UniProt (SwissProt) Alternative ID(s) of Target Chain>


> <UniProt (TrEMBL) Submitted Name of Target Chain>


> <UniProt (TrEMBL) Entry Name of Target Chain>


> <UniProt (TrEMBL) Primary ID of Target Chain>
A0A024RB77

> <UniProt (TrEMBL) Secondary ID(s) of Target Chain>


> <UniProt (TrEMBL) Alternative ID(s) of Target Chain>


$$$$
BindingDB_50444922_mol_1

Vconf v2.0 Academic SN VC001-00000579
 63 66  0  0  0  0  0  0  0  0999 V2000
   22.5580   -9.2870    0.4760 C   0  0  0  0  0  0  0  0  0  0  0
   22.9300  -10.3310   -0.4030 C   0  0  0  0  0  0  0  0  0  0  0
   23.7900  -11.3590    0.0120 C   0  0  0  0  0  0  0  0  0  0  0
   23.0870   -9.3090    1.7900 C   0  0  0  0  0  0  0  0  0  0  0
   23.9600  -10.3310    2.2300 C   0  0  0  0  0  0  0  0  0  0  0
   24.2990  -11.3630    1.3190 C   0  0  0  0  0  0  0  0  0  0  0
   25.1150  -12.3720    1.7070 N   0  0  0  0  0  0  0  0  0  0  0
   25.6490  -12.4720    2.9510 C   0  0  0  0  0  0  0  0  0  0  0
   25.3450  -11.4690    3.8920 C   0  0  0  0  0  0  0  0  0  0  0
   24.5090  -10.3900    3.5380 C   0  0  0  0  0  0  0  0  0  0  0
   21.6720   -8.2500    0.0510 C   0  0  0  0  0  0  0  0  0  0  0
   24.2650   -9.4310    4.5010 C   0  0  0  0  0  0  0  0  0  0  0
   24.4080   -8.2420    4.2660 O   0  0  0  0  0  0  0  0  0  0  0
   23.9360   -9.7780    5.7320 O   0  0  0  0  0  0  0  0  0  0  0
   26.4830  -13.5650    3.2570 C   0  0  0  0  0  0  0  0  0  0  0
   26.7840  -14.4600    2.2890 N   0  0  0  0  0  0  0  0  0  0  0
   26.9610  -13.7150    4.4060 O   0  0  0  0  0  0  0  0  0  0  0
   27.6200  -15.5950    2.4810 C   0  0  2  0  0  0  0  0  0  0  0
   27.9920  -16.1600    1.0940 C   0  0  0  0  0  0  0  0  0  0  0
   26.8790  -16.6550    3.3310 C   0  0  0  0  0  0  0  0  0  0  0
   27.7040  -17.8410    3.6400 C   0  0  0  0  0  0  0  0  0  0  0
   27.3510  -19.1130    3.1420 C   0  0  0  0  0  0  0  0  0  0  0
   28.1410  -20.2380    3.4360 C   0  0  0  0  0  0  0  0  0  0  0
   29.2900  -20.1020    4.2320 C   0  0  0  0  0  0  0  0  0  0  0
   29.6470  -18.8390    4.7370 C   0  0  0  0  0  0  0  0  0  0  0
   28.8560  -17.7150    4.4430 C   0  0  0  0  0  0  0  0  0  0  0
   21.7020   -7.7610   -1.2770 C   0  0  0  0  0  0  0  0  0  0  0
   20.8290   -6.7470   -1.6970 C   0  0  0  0  0  0  0  0  0  0  0
   19.9070   -6.1990   -0.7950 C   0  0  0  0  0  0  0  0  0  0  0
   19.8420   -6.6530    0.5390 C   0  0  0  0  0  0  0  0  0  0  0
   20.7300   -7.6770    0.9410 C   0  0  0  0  0  0  0  0  0  0  0
   18.8500   -6.0490    1.4680 C   0  0  0  0  0  0  0  0  0  0  0
   18.8860   -6.5630    2.7440 F   0  0  0  0  0  0  0  0  0  0  0
   19.0670   -4.6960    1.5780 F   0  0  0  0  0  0  0  0  0  0  0
   17.5760   -6.2470    0.9930 F   0  0  0  0  0  0  0  0  0  0  0
   30.0460  -21.1860    4.5090 O   0  0  0  0  0  0  0  0  0  0  0
   28.7670  -15.1290    0.2560 C   0  0  0  0  0  0  0  0  0  0  0
   29.1800  -15.7340   -1.0910 C   0  0  0  0  0  0  0  0  0  0  0
   22.5640  -10.3620   -1.3560 H   0  0  0  0  0  0  0  0  0  0  0
   24.0390  -12.1060   -0.6380 H   0  0  0  0  0  0  0  0  0  0  0
   22.8350   -8.5590    2.4350 H   0  0  0  0  0  0  0  0  0  0  0
   25.7390  -11.5200    4.8340 H   0  0  0  0  0  0  0  0  0  0  0
   23.8180   -9.0150    6.3350 H   0  0  0  0  0  0  0  0  0  0  0
   26.4270  -14.2970    1.4020 H   0  0  0  0  0  0  0  0  0  0  0
   28.5380  -15.2860    2.9870 H   0  0  0  0  0  0  0  0  0  0  0
   28.6210  -17.0410    1.2190 H   0  0  0  0  0  0  0  0  0  0  0
   27.0830  -16.4480    0.5630 H   0  0  0  0  0  0  0  0  0  0  0
   26.5670  -16.2070    4.2760 H   0  0  0  0  0  0  0  0  0  0  0
   25.9760  -16.9520    2.7920 H   0  0  0  0  0  0  0  0  0  0  0
   26.5190  -19.2210    2.5610 H   0  0  0  0  0  0  0  0  0  0  0
   27.8790  -21.1530    3.0690 H   0  0  0  0  0  0  0  0  0  0  0
   30.4790  -18.7370    5.3180 H   0  0  0  0  0  0  0  0  0  0  0
   29.1210  -16.8020    4.8150 H   0  0  0  0  0  0  0  0  0  0  0
   22.3720   -8.1350   -1.9510 H   0  0  0  0  0  0  0  0  0  0  0
   20.8670   -6.4070   -2.6580 H   0  0  0  0  0  0  0  0  0  0  0
   19.2760   -5.4620   -1.1120 H   0  0  0  0  0  0  0  0  0  0  0
   20.6780   -8.0200    1.9000 H   0  0  0  0  0  0  0  0  0  0  0
   30.8310  -21.0050    5.0680 H   0  0  0  0  0  0  0  0  0  0  0
   28.1410  -14.2550    0.0740 H   0  0  0  0  0  0  0  0  0  0  0
   29.6620  -14.8200    0.7970 H   0  0  0  0  0  0  0  0  0  0  0
   29.7260  -14.9900   -1.6700 H   0  0  0  0  0  0  0  0  0  0  0
   29.8200  -16.6010   -0.9250 H   0  0  0  0  0  0  0  0  0  0  0
   28.2920  -16.0400   -1.6460 H   0  0  0  0  0  0  0  0  0  0  0
  1  2  2  0  0  0  0
  1  4  1  0  0  0  0
  1 11  1  0  0  0  0
  2  3  1  0  0  0  0
  2 39  1  0  0  0  0
  3  6  2  0  0  0  0
  3 40  1  0  0  0  0
  4  5  2  0  0  0  0
  4 41  1  0  0  0  0
  5  6  1  0  0  0  0
  5 10  1  0  0  0  0
  6  7  1  0  0  0  0
  7  8  2  0  0  0  0
  8  9  1  0  0  0  0
  8 15  1  0  0  0  0
  9 10  2  0  0  0  0
  9 42  1  0  0  0  0
 10 12  1  0  0  0  0
 11 27  2  0  0  0  0
 11 31  1  0  0  0  0
 12 13  2  0  0  0  0
 12 14  1  0  0  0  0
 14 43  1  0  0  0  0
 15 16  1  0  0  0  0
 15 17  2  0  0  0  0
 18 16  1  1  0  0  0
 16 44  1  0  0  0  0
 18 19  1  0  0  0  0
 18 20  1  0  0  0  0
 18 45  1  0  0  0  0
 19 37  1  0  0  0  0
 19 46  1  0  0  0  0
 19 47  1  0  0  0  0
 20 21  1  0  0  0  0
 20 48  1  0  0  0  0
 20 49  1  0  0  0  0
 21 22  2  0  0  0  0
 21 26  1  0  0  0  0
 22 23  1  0  0  0  0
 22 50  1  0  0  0  0
 23 24  2  0  0  0  0
 23 51  1  0  0  0  0
 24 25  1  0  0  0  0
 24 36  1  0  0  0  0
 25 26  2  0  0  0  0
 25 52  1  0  0  0  0
 26 53  1  0  0  0  0
 27 28  1  0  0  0  0
 27 54  1  0  0  0  0
 28 29  2  0  0  0  0
 28 55  1  0  0  0  0
 29 30  1  0  0  0  0
 29 56  1  0  0  0  0
 30 31  2  0  0  0  0
 30 32  1  0  0  0  0
 31 57  1  0  0  0  0
 32 33  1  0  0  0  0
 32 34  1  0  0  0  0
 32 35  1  0  0  0  0
 36 58  1  0  0  0  0
 37 38  1  0  0  0  0
 37 59  1  0  0  0  0
 37 60  1  0  0  0  0
 38 61  1  0  0  0  0
 38 62  1  0  0  0  0
 38 63  1  0  0  0  0
M  END
> <From>
www.bindingDB.org

> <BindingDB Reactant_set_id>
50077179

> <Ligand InChI>
InChI=1S/C29H25F3N2O4/c1-2-4-21(13-17-7-10-22(35)11-8-17)33-27(36)26-16-24(28(37)38)23-15-19(9-12-25(23)34-26)18-5-3-6-20(14-18)29(30,31)32/h3,5-12,14-16,21,35H,2,4,13H2,1H3,(H,33,36)(H,37,38)/t21-/m1/s1

> <Ligand InChI Key>
DDIHZTFUIFPFOO-OAQYLSRUSA-N

> <BindingDB MonomerID>
50444922

> <BindingDB Ligand Name>
CHEMBL3099749

> <Target Name Assigned by Curator or DataSource>
Cyclin-dependent kinase 2

> <Target Source Organism According to Curator or DataSource>
Homo sapiens

> <Ki (nM)>
 300

> <IC50 (nM)>


> <Kd (nM)>


> <EC50 (nM)>


> <kon (M-1-s-1)>


> <koff (s-1)>


> <pH>


> <Temp C>


> <Curation/DataSource>
ChEMBL

> <Article DOI>
10.1016/j.bmcl.2013.11.041

> <PMID>
24332088

> <PubChem AID>


> <Patent Number>


> <Authors>
Deng, Y; Shipps, GW; Zhao, L; Siddiqui, MA; Popovici-Muller, J; Curran, PJ; Duca, JS; Hruza, AW; Fischmann, TO; Madison, VS; Zhang, R; McNemar, CW; Mayhood, TW; Syto, R; Annis, A; Kirschmeier, P; Lees, EM; Parry, DA; Windsor, WT

> <Institution>
Merck Research Laboratories

> <Link to Ligand in BindingDB>
http://www.bindingdb.org/bind/chemsearch/marvin/MolStructure.jsp?monomerid=50444922

> <Link to Ligand-Target Pair in BindingDB>
http://www.bindingdb.org/jsp/dbsearch/PrimarySearch_ki.jsp?energyterm=kJ/mole&tag=pol&polymerid=796&target=Cyclin-dependent+kinase+2&column=ki&startPg=0&Increment=50&submit=Search

> <Link to Ligand-Target Pair in BindingDB>
http://www.bindingdb.org/jsp/dbsearch/PrimarySearch_ki.jsp?energyterm=kJ/mole&tag=r21&monomerid=50444922&enzyme=Cyclin-dependent+kinase+2&column=ki&startPg=0&Increment=50&submit=Search

> <Ligand HET ID in PDB>


> <PDB ID(s) for Ligand-Target Complex>


> <PubChem CID>
72946458

> <PubChem SID>
194942818

> <ChEBI ID of Ligand>


> <ChEMBL ID of Ligand>
CHEMBL3099749

> <DrugBank ID of Ligand>


> <IUPHAR_GRAC ID of Ligand>


> <KEGG ID of Ligand>


> <ZINC ID of Ligand>


> <Number of Protein Chains in Target (bigger than 1 implies a multichain complex)>
1

> <BindingDB Target Chain Sequence>
MENFQKVEKIGEGTYGVVYKARNKLTGEVVALKKIRLDTETEGVPSTAIREISLLKELNHPNIVKLLDVIHTENKLYLVFEFLHQDLKKFMDASALTGIPLPLIKSYLFQLLQGLAFCHSHRVLHRDLKPQNLLINTEGAIKLADFGLARAFGVPVRTYTHEVVTLWYRAPEILLGCKYYSTAVDIWSLGCIFAEMVTRRALFPGDSEIDQLFRIFRTLGTPDEVVWPGVTSMPDYKPSFPKWARQDFSKVVPPLDEDGRSLLSQMLHYDPNKRISAKAALAHPFFQDVTKPVPHLRL

> <PDB ID(s) of Target Chain>
1CKP,1DI8,1DM2,1E1V,1E1X,1E9H,1F5Q,1FIN,1FQ1,1FVT,1FVV,1G5S,1GIH,1GY3,1GZ8,1H00,1H01,1H07,1H08,1H0V,1H0W,1H1P,1H1Q,1H1R,1H1S,1H24,1H25,1H26,1H27,1H28,1HCK,1HCL,1JST,1JSU,1JSV,1JVP,1KE5,1KE6,1KE7,1KE8,1KE9,1OGU,1OI9,1OIQ,1OIR,1OIU,1OIY,1OKV,1OKW,1OL1,1OL2,1P2A,1P5E,1PF8,1PKD,1PW2,1PXI,1PXJ,1PXK,1PXL,1PXM,1PXN,1PXO,1PXP,1PYE,1QMZ,1R78,1URC,1URW,1V1K,1VYW,1VYZ,1W0X,1W8C,1W98,1WCC,1Y8Y,1Y91,1YKR,2A0C,2A4L,2B52,2B53,2B54,2B55,2BHE,2BHH,2BKZ,2BPM,2BTR,2BTS,2C4G,2C5N,2C5O,2C5V,2C5X,2C5Y,2C68,2C69,2C6I,2C6K,2C6L,2C6M,2C6O,2C6T,2CCH,2CCI,2CJM,2CLX,2DUV,2EXM,2FVD,2G9X,2I40,2J9M,2JGZ,2R3F,2R3G,2R3H,2R3I,2R3J,2R3K,2R3L,2R3M,2R3N,2R3O,2R3P,2R3Q,2R3R,2R64,2UUE,2UZB,2UZD,2UZE,2UZL,2UZN,2UZO,2V0D,2V22,2VTA,2VTH,2VTI,2VTJ,2VTL,2VTM,2VTN,2VTO,2VTP,2VTQ,2VTR,2VTS,2VTT,2VU3,2VV9,2W05,2W06,2W17,2W1H,2WEV,2WFY,2WHB,2WIH,2WIP,2WMA,2WMB,2WPA,2WXV,2X1N,2XMY,2XNB,3BHT,3BHU,3BHV,3DDP,3DDQ,3DOG,3EID,3EJ1,3EOC,3EZR,3EZV,3F5X,3FZ1,3IG7,3IGG,3LE6,3LFN,3LFQ,3LFS,3MY5,3NS9,3PJ8,3PXF,3PXQ,3PXR,3PXY,3PXZ,3PY0,3PY1,3QHR,3QHW,3QL8,3QQF,3QQG,3QQH,3QQJ,3QQK,3QQL,3QRT,3QRU,3QTQ,3QTR,3QTS,3QTU,3QTW,3QTX,3QTZ,3QU0,3QWJ,3QWK,3QX2,3QX4,3QXO,3QXP,3QZF,3QZG,3QZH,3QZI,3R1Q,3R1S,3R1Y,3R28,3R6X,3R71,3R73,3R7E,3R7I,3R7U,3R7V,3R7Y,3R83,3R8L,3R8M,3R8P,3R8U,3R8V,3R8Z,3R9D,3R9H,3R9N,3R9O,3RAH,3RAI,3RAK,3RAL,3RJC,3RK5,3RK7,3RK9,3RKB,3RM6,3RM7,3RMF,3RNI,3ROY,3RPO,3RPR,3RPV,3RPY,3RZB,3S00,3S0O,3S1H,3S2P,3SQQ,3SW4,3SW7,3TI1,3TIY,3TIZ,3TNW,3ULI,3UNJ,3UNK,3WBL,4ACM,4BCK,4BCM,4BCN,4BCO,4BCP,4BCQ,4BGH,4BZD,4CFM,4CFN,4CFU,4CFV,4CFW,4CFX,4D1X,4D1Z,4EK3,4EK4,4EK5,4EK6,4EK8,4EOQ,4EOR,4EOS,4ERW,4EZ3,4EZ7,4FKG,4FKI,4FKJ,4FKL,4FKO,4FKP,4FKQ,4FKR,4FKS,4FKT,4FKU,4FKV,4FKW,4FX3,4GCJ,4I3Z,4II5,4KD1,4LYN,4NJ3,4RJ3,5A14,5AND,5ANE,5ANG,5ANI,5ANJ,5ANK,5ANO,5CYI,5D1J,5FP5,5FP6,5IEV,5IEX,5IEY,5IF1,5JQ5,5JQ8,5K4J,5L2W,5LMK,5MHQ,5NEV,5OO0,5OSJ,5UQ1,5UQ2,5UQ3,6ATH,6GUB,6GUC,6GUE,6GUF,6GUH,6GUK,6GVA,6INL,6JGM,6OQI,6P3W,6Q3B,6Q3C,6Q3F,6Q48,6Q49,6Q4A,6Q4B,6Q4C,6Q4D,6Q4E,6Q4F,6Q4H,6Q4J,6Q4K,6RIJ,6SG4,7ACK,7B5L,7B5R,7B7S,7E34,7KJS,7M2F,7NVQ

> <UniProt (SwissProt) Recommended Name of Target Chain>
Cyclin-dependent kinase 2

> <UniProt (SwissProt) Entry Name of Target Chain>
CDK2_HUMAN

> <UniProt (SwissProt) Primary ID of Target Chain>
P24941

> <UniProt (SwissProt) Secondary ID(s) of Target Chain>
A8K7C6,O75100

> <UniProt (SwissProt) Alternative ID(s) of Target Chain>


> <UniProt (TrEMBL) Submitted Name of Target Chain>


> <UniProt (TrEMBL) Entry Name of Target Chain>


> <UniProt (TrEMBL) Primary ID of Target Chain>
A0A024RB77

> <UniProt (TrEMBL) Secondary ID(s) of Target Chain>


> <UniProt (TrEMBL) Alternative ID(s) of Target Chain>


$$$$
BindingDB_50205472_mol_1

Vconf v2.0 Academic SN VC001-00000579
 37 40  0  0  0  0  0  0  0  0999 V2000
   -0.3720  -24.4820    1.2290 C   0  0  0  0  0  0  0  0  0  0  0
   -0.3590  -25.8800    1.0910 C   0  0  0  0  0  0  0  0  0  0  0
    1.7900  -24.3410    0.1170 C   0  0  0  0  0  0  0  0  0  0  0
    0.6940  -23.7020    0.7350 C   0  0  0  0  0  0  0  0  0  0  0
    1.8120  -25.7430   -0.0250 C   0  0  0  0  0  0  0  0  0  0  0
    0.7280  -26.5150    0.4660 C   0  0  0  0  0  0  0  0  0  0  0
    0.7480  -27.8650    0.3310 N   0  0  0  0  0  0  0  0  0  0  0
    1.7720  -28.5290   -0.2610 C   0  0  0  0  0  0  0  0  0  0  0
    2.8700  -27.8130   -0.7630 C   0  0  0  0  0  0  0  0  0  0  0
    2.8850  -26.4140   -0.6420 C   0  0  0  0  0  0  0  0  0  0  0
    0.6600  -22.3350    0.8990 C   0  0  0  0  0  0  0  0  0  0  0
    0.8230  -21.4680   -0.1100 C   0  0  0  0  0  0  0  0  0  0  0
    0.7880  -20.1080    0.0310 C   0  0  0  0  0  0  0  0  0  0  0
    0.9520  -19.4530   -1.0830 N   0  0  0  0  0  0  0  0  0  0  0
    1.1150  -20.2510   -2.1020 C   0  0  0  0  0  0  0  0  0  0  0
    1.0740  -21.9420   -1.7280 S   0  0  0  0  0  0  0  0  0  0  0
    0.6160  -19.5180    1.1210 O   0  0  0  0  0  0  0  0  0  0  0
    1.2970  -19.7750   -3.3460 N   0  0  0  0  0  0  0  0  0  0  0
    1.4730  -20.6320   -4.4640 C   0  0  0  0  0  0  0  0  0  0  0
    1.6340  -19.8450   -5.6900 C   0  0  0  0  0  0  0  0  0  0  0
    0.5170  -19.9510   -7.0130 S   0  0  0  0  0  0  0  0  0  0  0
    1.4820  -18.7900   -7.8640 C   0  0  0  0  0  0  0  0  0  0  0
    2.5970  -18.3570   -7.1600 C   0  0  0  0  0  0  0  0  0  0  0
    2.6850  -18.9610   -5.9160 C   0  0  0  0  0  0  0  0  0  0  0
   -1.1670  -24.0340    1.6880 H   0  0  0  0  0  0  0  0  0  0  0
   -1.1390  -26.4330    1.4470 H   0  0  0  0  0  0  0  0  0  0  0
    2.5740  -23.7830   -0.2270 H   0  0  0  0  0  0  0  0  0  0  0
    1.7440  -29.5460   -0.3390 H   0  0  0  0  0  0  0  0  0  0  0
    3.6460  -28.3020   -1.2100 H   0  0  0  0  0  0  0  0  0  0  0
    3.6820  -25.8890   -1.0060 H   0  0  0  0  0  0  0  0  0  0  0
    0.4850  -21.9830    1.8110 H   0  0  0  0  0  0  0  0  0  0  0
    1.3050  -18.8140   -3.4800 H   0  0  0  0  0  0  0  0  0  0  0
    2.3560  -21.2580   -4.3210 H   0  0  0  0  0  0  0  0  0  0  0
    0.5970  -21.2740   -4.5730 H   0  0  0  0  0  0  0  0  0  0  0
    1.2500  -18.4560   -8.7990 H   0  0  0  0  0  0  0  0  0  0  0
    3.2690  -17.6770   -7.5150 H   0  0  0  0  0  0  0  0  0  0  0
    3.4330  -18.7790   -5.2460 H   0  0  0  0  0  0  0  0  0  0  0
  1  2  1  0  0  0  0
  1  4  2  0  0  0  0
  1 25  1  0  0  0  0
  2  6  2  0  0  0  0
  2 26  1  0  0  0  0
  3  4  1  0  0  0  0
  3  5  2  0  0  0  0
  3 27  1  0  0  0  0
  4 11  1  0  0  0  0
  5  6  1  0  0  0  0
  5 10  1  0  0  0  0
  6  7  1  0  0  0  0
  7  8  2  0  0  0  0
  8  9  1  0  0  0  0
  8 28  1  0  0  0  0
  9 10  2  0  0  0  0
  9 29  1  0  0  0  0
 10 30  1  0  0  0  0
 11 12  2  0  0  0  0
 11 31  1  0  0  0  0
 12 13  1  0  0  0  0
 12 16  1  0  0  0  0
 13 14  1  0  0  0  0
 13 17  2  0  0  0  0
 14 15  2  0  0  0  0
 15 16  1  0  0  0  0
 15 18  1  0  0  0  0
 18 19  1  0  0  0  0
 18 32  1  0  0  0  0
 19 20  1  0  0  0  0
 19 33  1  0  0  0  0
 19 34  1  0  0  0  0
 20 21  1  0  0  0  0
 20 24  2  0  0  0  0
 21 22  1  0  0  0  0
 22 23  2  0  0  0  0
 22 35  1  0  0  0  0
 23 24  1  0  0  0  0
 23 36  1  0  0  0  0
 24 37  1  0  0  0  0
M  END
> <From>
www.bindingDB.org

> <BindingDB Reactant_set_id>
50375321

> <Ligand InChI>
InChI=1S/C18H13N3OS2/c22-17-16(24-18(21-17)20-11-14-4-2-8-23-14)10-12-5-6-15-13(9-12)3-1-7-19-15/h1-10H,11H2,(H,20,21,22)

> <Ligand InChI Key>
XOLMRFUGOINFDQ-UHFFFAOYSA-N

> <BindingDB MonomerID>
50205472

> <BindingDB Ligand Name>
(5Z)-5-(quinolin-6-ylmethylidene)-2-[(thiophen-2-ylmethyl)amino]-1,3-thiazol-4(5H)-one::(Z)-5-(quinolin-6-ylmethylene)-2-(thiophen-2-ylmethylamino)thiazol-4(5H)-one::CHEMBL261644::CHEMBL393929

> <Target Name Assigned by Curator or DataSource>
Cyclin-dependent kinase 2

> <Target Source Organism According to Curator or DataSource>
Homo sapiens

> <Ki (nM)>
 340

> <IC50 (nM)>


> <Kd (nM)>


> <EC50 (nM)>


> <kon (M-1-s-1)>


> <koff (s-1)>


> <pH>


> <Temp C>


> <Curation/DataSource>
ChEMBL

> <Article DOI>
10.1016/j.bmcl.2007.01.081

> <PMID>
17303421

> <PubChem AID>


> <Patent Number>


> <Authors>
Chen, S; Chen, L; Le, NT; Zhao, C; Sidduri, A; Lou, JP; Michoud, C; Portland, L; Jackson, N; Liu, JJ; Konzelmann, F; Chi, F; Tovar, C; Xiang, Q; Chen, Y; Wen, Y; Vassilev, LT

> <Institution>
Roche Research Center

> <Link to Ligand in BindingDB>
http://www.bindingdb.org/bind/chemsearch/marvin/MolStructure.jsp?monomerid=50205472

> <Link to Ligand-Target Pair in BindingDB>
http://www.bindingdb.org/jsp/dbsearch/PrimarySearch_ki.jsp?energyterm=kJ/mole&tag=pol&polymerid=796&target=Cyclin-dependent+kinase+2&column=ki&startPg=0&Increment=50&submit=Search

> <Link to Ligand-Target Pair in BindingDB>
http://www.bindingdb.org/jsp/dbsearch/PrimarySearch_ki.jsp?energyterm=kJ/mole&tag=r21&monomerid=50205472&enzyme=Cyclin-dependent+kinase+2&column=ki&startPg=0&Increment=50&submit=Search

> <Ligand HET ID in PDB>
1RO

> <PDB ID(s) for Ligand-Target Complex>
5O12,4EOP,4EOI,4EOL,4EON,4EOS

> <PubChem CID>
11631681

> <PubChem SID>
104083820

> <ChEBI ID of Ligand>


> <ChEMBL ID of Ligand>
CHEMBL261644
CHEMBL393929

> <DrugBank ID of Ligand>


> <IUPHAR_GRAC ID of Ligand>


> <KEGG ID of Ligand>


> <ZINC ID of Ligand>
ZINC28821265

> <Number of Protein Chains in Target (bigger than 1 implies a multichain complex)>
1

> <BindingDB Target Chain Sequence>
MENFQKVEKIGEGTYGVVYKARNKLTGEVVALKKIRLDTETEGVPSTAIREISLLKELNHPNIVKLLDVIHTENKLYLVFEFLHQDLKKFMDASALTGIPLPLIKSYLFQLLQGLAFCHSHRVLHRDLKPQNLLINTEGAIKLADFGLARAFGVPVRTYTHEVVTLWYRAPEILLGCKYYSTAVDIWSLGCIFAEMVTRRALFPGDSEIDQLFRIFRTLGTPDEVVWPGVTSMPDYKPSFPKWARQDFSKVVPPLDEDGRSLLSQMLHYDPNKRISAKAALAHPFFQDVTKPVPHLRL

> <PDB ID(s) of Target Chain>
1CKP,1DI8,1DM2,1E1V,1E1X,1E9H,1F5Q,1FIN,1FQ1,1FVT,1FVV,1G5S,1GIH,1GY3,1GZ8,1H00,1H01,1H07,1H08,1H0V,1H0W,1H1P,1H1Q,1H1R,1H1S,1H24,1H25,1H26,1H27,1H28,1HCK,1HCL,1JST,1JSU,1JSV,1JVP,1KE5,1KE6,1KE7,1KE8,1KE9,1OGU,1OI9,1OIQ,1OIR,1OIU,1OIY,1OKV,1OKW,1OL1,1OL2,1P2A,1P5E,1PF8,1PKD,1PW2,1PXI,1PXJ,1PXK,1PXL,1PXM,1PXN,1PXO,1PXP,1PYE,1QMZ,1R78,1URC,1URW,1V1K,1VYW,1VYZ,1W0X,1W8C,1W98,1WCC,1Y8Y,1Y91,1YKR,2A0C,2A4L,2B52,2B53,2B54,2B55,2BHE,2BHH,2BKZ,2BPM,2BTR,2BTS,2C4G,2C5N,2C5O,2C5V,2C5X,2C5Y,2C68,2C69,2C6I,2C6K,2C6L,2C6M,2C6O,2C6T,2CCH,2CCI,2CJM,2CLX,2DUV,2EXM,2FVD,2G9X,2I40,2J9M,2JGZ,2R3F,2R3G,2R3H,2R3I,2R3J,2R3K,2R3L,2R3M,2R3N,2R3O,2R3P,2R3Q,2R3R,2R64,2UUE,2UZB,2UZD,2UZE,2UZL,2UZN,2UZO,2V0D,2V22,2VTA,2VTH,2VTI,2VTJ,2VTL,2VTM,2VTN,2VTO,2VTP,2VTQ,2VTR,2VTS,2VTT,2VU3,2VV9,2W05,2W06,2W17,2W1H,2WEV,2WFY,2WHB,2WIH,2WIP,2WMA,2WMB,2WPA,2WXV,2X1N,2XMY,2XNB,3BHT,3BHU,3BHV,3DDP,3DDQ,3DOG,3EID,3EJ1,3EOC,3EZR,3EZV,3F5X,3FZ1,3IG7,3IGG,3LE6,3LFN,3LFQ,3LFS,3MY5,3NS9,3PJ8,3PXF,3PXQ,3PXR,3PXY,3PXZ,3PY0,3PY1,3QHR,3QHW,3QL8,3QQF,3QQG,3QQH,3QQJ,3QQK,3QQL,3QRT,3QRU,3QTQ,3QTR,3QTS,3QTU,3QTW,3QTX,3QTZ,3QU0,3QWJ,3QWK,3QX2,3QX4,3QXO,3QXP,3QZF,3QZG,3QZH,3QZI,3R1Q,3R1S,3R1Y,3R28,3R6X,3R71,3R73,3R7E,3R7I,3R7U,3R7V,3R7Y,3R83,3R8L,3R8M,3R8P,3R8U,3R8V,3R8Z,3R9D,3R9H,3R9N,3R9O,3RAH,3RAI,3RAK,3RAL,3RJC,3RK5,3RK7,3RK9,3RKB,3RM6,3RM7,3RMF,3RNI,3ROY,3RPO,3RPR,3RPV,3RPY,3RZB,3S00,3S0O,3S1H,3S2P,3SQQ,3SW4,3SW7,3TI1,3TIY,3TIZ,3TNW,3ULI,3UNJ,3UNK,3WBL,4ACM,4BCK,4BCM,4BCN,4BCO,4BCP,4BCQ,4BGH,4BZD,4CFM,4CFN,4CFU,4CFV,4CFW,4CFX,4D1X,4D1Z,4EK3,4EK4,4EK5,4EK6,4EK8,4EOQ,4EOR,4EOS,4ERW,4EZ3,4EZ7,4FKG,4FKI,4FKJ,4FKL,4FKO,4FKP,4FKQ,4FKR,4FKS,4FKT,4FKU,4FKV,4FKW,4FX3,4GCJ,4I3Z,4II5,4KD1,4LYN,4NJ3,4RJ3,5A14,5AND,5ANE,5ANG,5ANI,5ANJ,5ANK,5ANO,5CYI,5D1J,5FP5,5FP6,5IEV,5IEX,5IEY,5IF1,5JQ5,5JQ8,5K4J,5L2W,5LMK,5MHQ,5NEV,5OO0,5OSJ,5UQ1,5UQ2,5UQ3,6ATH,6GUB,6GUC,6GUE,6GUF,6GUH,6GUK,6GVA,6INL,6JGM,6OQI,6P3W,6Q3B,6Q3C,6Q3F,6Q48,6Q49,6Q4A,6Q4B,6Q4C,6Q4D,6Q4E,6Q4F,6Q4H,6Q4J,6Q4K,6RIJ,6SG4,7ACK,7B5L,7B5R,7B7S,7E34,7KJS,7M2F,7NVQ

> <UniProt (SwissProt) Recommended Name of Target Chain>
Cyclin-dependent kinase 2

> <UniProt (SwissProt) Entry Name of Target Chain>
CDK2_HUMAN

> <UniProt (SwissProt) Primary ID of Target Chain>
P24941

> <UniProt (SwissProt) Secondary ID(s) of Target Chain>
A8K7C6,O75100

> <UniProt (SwissProt) Alternative ID(s) of Target Chain>


> <UniProt (TrEMBL) Submitted Name of Target Chain>


> <UniProt (TrEMBL) Entry Name of Target Chain>


> <UniProt (TrEMBL) Primary ID of Target Chain>
A0A024RB77

> <UniProt (TrEMBL) Secondary ID(s) of Target Chain>


> <UniProt (TrEMBL) Alternative ID(s) of Target Chain>


$$$$
BindingDB_50277583_mol_1

Vconf v2.0 Academic SN VC001-00000579
 46 49  0  0  0  0  0  0  0  0999 V2000
   14.5790   -7.1820    0.5600 C   0  0  0  0  0  0  0  0  0  0  0
   14.5660   -8.5890    0.5630 C   0  0  0  0  0  0  0  0  0  0  0
   15.7540   -9.2410    0.5890 N   0  0  0  0  0  0  0  0  0  0  0
   16.9530   -8.6080    0.6110 C   0  0  0  0  0  0  0  0  0  0  0
   16.9680   -7.2550    0.6090 N   0  0  0  0  0  0  0  0  0  0  0
   15.8220   -6.5330    0.5850 C   0  0  0  0  0  0  0  0  0  0  0
   18.1220   -9.2880    0.6350 N   0  0  0  0  0  0  0  0  0  0  0
   18.1830  -10.6380    0.6370 C   0  0  0  0  0  0  0  0  0  0  0
   18.2400  -11.3450   -0.5790 C   0  0  0  0  0  0  0  0  0  0  0
   18.2400  -12.7500   -0.5780 C   0  0  0  0  0  0  0  0  0  0  0
   18.1880  -13.4620    0.6370 C   0  0  0  0  0  0  0  0  0  0  0
   18.1500  -12.7510    1.8520 C   0  0  0  0  0  0  0  0  0  0  0
   18.1500  -11.3460    1.8540 C   0  0  0  0  0  0  0  0  0  0  0
   18.1510  -14.8210    0.6360 N   0  0  0  0  0  0  0  0  0  0  0
   19.1650  -15.6030    0.0050 C   0  0  0  0  0  0  0  0  0  0  0
   18.5120  -16.4930   -1.0640 C   0  0  0  0  0  0  0  0  0  0  0
   17.4300  -17.2200   -0.4820 O   0  0  0  0  0  0  0  0  0  0  0
   16.4210  -16.4290    0.1460 C   0  0  0  0  0  0  0  0  0  0  0
   17.0600  -15.5340    1.2190 C   0  0  0  0  0  0  0  0  0  0  0
   13.3550   -9.3100    0.5360 C   0  0  0  0  0  0  0  0  0  0  0
   11.8230   -8.5000    0.4930 S   0  0  0  0  0  0  0  0  0  0  0
   11.0860  -10.0650    0.4780 C   0  0  0  0  0  0  0  0  0  0  0
   11.9340  -11.0980    0.5060 N   0  0  0  0  0  0  0  0  0  0  0
   13.2130  -10.7040    0.5390 C   0  0  0  0  0  0  0  0  0  0  0
   14.3010  -11.6910    0.5730 C   0  0  0  0  0  0  0  0  0  0  0
    9.7590  -10.2360    0.4410 N   0  0  0  0  0  0  0  0  0  0  0
   13.7170   -6.6360    0.5420 H   0  0  0  0  0  0  0  0  0  0  0
   15.8640   -5.5140    0.5840 H   0  0  0  0  0  0  0  0  0  0  0
   18.9500   -8.7840    0.6460 H   0  0  0  0  0  0  0  0  0  0  0
   18.2620  -10.8390   -1.4650 H   0  0  0  0  0  0  0  0  0  0  0
   18.2640  -13.2550   -1.4650 H   0  0  0  0  0  0  0  0  0  0  0
   18.1130  -13.2560    2.7380 H   0  0  0  0  0  0  0  0  0  0  0
   18.1070  -10.8400    2.7390 H   0  0  0  0  0  0  0  0  0  0  0
   19.6370  -16.2400    0.7540 H   0  0  0  0  0  0  0  0  0  0  0
   19.9350  -14.9850   -0.4610 H   0  0  0  0  0  0  0  0  0  0  0
   18.1370  -15.8700   -1.8780 H   0  0  0  0  0  0  0  0  0  0  0
   19.2500  -17.1910   -1.4590 H   0  0  0  0  0  0  0  0  0  0  0
   15.6810  -17.0830    0.6080 H   0  0  0  0  0  0  0  0  0  0  0
   15.9290  -15.8050   -0.6020 H   0  0  0  0  0  0  0  0  0  0  0
   17.4360  -16.1630    2.0280 H   0  0  0  0  0  0  0  0  0  0  0
   16.2950  -14.8650    1.6210 H   0  0  0  0  0  0  0  0  0  0  0
   13.8870  -12.7000    0.5690 H   0  0  0  0  0  0  0  0  0  0  0
   14.9400  -11.5690   -0.3020 H   0  0  0  0  0  0  0  0  0  0  0
   14.8950  -11.5570    1.4780 H   0  0  0  0  0  0  0  0  0  0  0
    9.3890  -11.1320    0.4340 H   0  0  0  0  0  0  0  0  0  0  0
    9.1700   -9.4660    0.4200 H   0  0  0  0  0  0  0  0  0  0  0
  1  2  2  0  0  0  0
  1  6  1  0  0  0  0
  1 27  1  0  0  0  0
  2  3  1  0  0  0  0
  2 20  1  0  0  0  0
  3  4  2  0  0  0  0
  4  5  1  0  0  0  0
  4  7  1  0  0  0  0
  5  6  2  0  0  0  0
  6 28  1  0  0  0  0
  7  8  1  0  0  0  0
  7 29  1  0  0  0  0
  8  9  1  0  0  0  0
  8 13  2  0  0  0  0
  9 10  2  0  0  0  0
  9 30  1  0  0  0  0
 10 11  1  0  0  0  0
 10 31  1  0  0  0  0
 11 12  2  0  0  0  0
 11 14  1  0  0  0  0
 12 13  1  0  0  0  0
 12 32  1  0  0  0  0
 13 33  1  0  0  0  0
 14 15  1  0  0  0  0
 14 19  1  0  0  0  0
 15 16  1  0  0  0  0
 15 34  1  0  0  0  0
 15 35  1  0  0  0  0
 16 17  1  0  0  0  0
 16 36  1  0  0  0  0
 16 37  1  0  0  0  0
 17 18  1  0  0  0  0
 18 19  1  0  0  0  0
 18 38  1  0  0  0  0
 18 39  1  0  0  0  0
 19 40  1  0  0  0  0
 19 41  1  0  0  0  0
 20 21  1  0  0  0  0
 20 24  2  0  0  0  0
 21 22  1  0  0  0  0
 22 23  2  0  0  0  0
 22 26  1  0  0  0  0
 23 24  1  0  0  0  0
 24 25  1  0  0  0  0
 25 42  1  0  0  0  0
 25 43  1  0  0  0  0
 25 44  1  0  0  0  0
 26 45  1  0  0  0  0
 26 46  1  0  0  0  0
M  END
> <From>
www.bindingDB.org

> <BindingDB Reactant_set_id>
50579965

> <Ligand InChI>
InChI=1S/C18H20N6OS/c1-12-16(26-17(19)21-12)15-6-7-20-18(23-15)22-13-2-4-14(5-3-13)24-8-10-25-11-9-24/h2-7H,8-11H2,1H3,(H2,19,21)(H,20,22,23)

> <Ligand InChI Key>
GPSZYOIFQZPWEJ-UHFFFAOYSA-N

> <BindingDB MonomerID>
50277583

> <BindingDB Ligand Name>
2-amino-4-methyl-1,3-thiazol-5-yl)-N-[4-(morpholin-4-yl)phenyl]pyrimidin-2-amine, 5::4-Methyl-5-(2-(4-morpholinophenylamino)pyrimidin-4-yl)thiazol-2-amine::Aminopyrimidine, 9::CHEMBL482967::CYC-116

> <Target Name Assigned by Curator or DataSource>
Cyclin-dependent kinase 2

> <Target Source Organism According to Curator or DataSource>
Homo sapiens

> <Ki (nM)>
 390

> <IC50 (nM)>


> <Kd (nM)>


> <EC50 (nM)>


> <kon (M-1-s-1)>


> <koff (s-1)>


> <pH>


> <Temp C>


> <Curation/DataSource>
ChEMBL

> <Article DOI>
10.1021/jm901913s

> <PMID>
20462263

> <PubChem AID>


> <Patent Number>


> <Authors>
Wang, S; Midgley, CA; Scaerou, F; Grabarek, JB; Griffiths, G; Jackson, W; Kontopidis, G; McClue, SJ; McInnes, C; Meades, C; Mezna, M; Plater, A; Stuart, I; Thomas, MP; Wood, G; Clarke, RG; Blake, DG; Zheleva, DI; Lane, DP; Jackson, RC; Glover, DM; Fischer, PM

> <Institution>
Cyclacel Ltd

> <Link to Ligand in BindingDB>
http://www.bindingdb.org/bind/chemsearch/marvin/MolStructure.jsp?monomerid=50277583

> <Link to Ligand-Target Pair in BindingDB>
http://www.bindingdb.org/jsp/dbsearch/PrimarySearch_ki.jsp?energyterm=kJ/mole&tag=pol&polymerid=796&target=Cyclin-dependent+kinase+2&column=ki&startPg=0&Increment=50&submit=Search

> <Link to Ligand-Target Pair in BindingDB>
http://www.bindingdb.org/jsp/dbsearch/PrimarySearch_ki.jsp?energyterm=kJ/mole&tag=r21&monomerid=50277583&enzyme=Cyclin-dependent+kinase+2&column=ki&startPg=0&Increment=50&submit=Search

> <Ligand HET ID in PDB>


> <PDB ID(s) for Ligand-Target Complex>


> <PubChem CID>
6420138

> <PubChem SID>
104120139

> <ChEBI ID of Ligand>


> <ChEMBL ID of Ligand>
CHEMBL482967

> <DrugBank ID of Ligand>


> <IUPHAR_GRAC ID of Ligand>


> <KEGG ID of Ligand>


> <ZINC ID of Ligand>
ZINC03950132

> <Number of Protein Chains in Target (bigger than 1 implies a multichain complex)>
1

> <BindingDB Target Chain Sequence>
MENFQKVEKIGEGTYGVVYKARNKLTGEVVALKKIRLDTETEGVPSTAIREISLLKELNHPNIVKLLDVIHTENKLYLVFEFLHQDLKKFMDASALTGIPLPLIKSYLFQLLQGLAFCHSHRVLHRDLKPQNLLINTEGAIKLADFGLARAFGVPVRTYTHEVVTLWYRAPEILLGCKYYSTAVDIWSLGCIFAEMVTRRALFPGDSEIDQLFRIFRTLGTPDEVVWPGVTSMPDYKPSFPKWARQDFSKVVPPLDEDGRSLLSQMLHYDPNKRISAKAALAHPFFQDVTKPVPHLRL

> <PDB ID(s) of Target Chain>
1CKP,1DI8,1DM2,1E1V,1E1X,1E9H,1F5Q,1FIN,1FQ1,1FVT,1FVV,1G5S,1GIH,1GY3,1GZ8,1H00,1H01,1H07,1H08,1H0V,1H0W,1H1P,1H1Q,1H1R,1H1S,1H24,1H25,1H26,1H27,1H28,1HCK,1HCL,1JST,1JSU,1JSV,1JVP,1KE5,1KE6,1KE7,1KE8,1KE9,1OGU,1OI9,1OIQ,1OIR,1OIU,1OIY,1OKV,1OKW,1OL1,1OL2,1P2A,1P5E,1PF8,1PKD,1PW2,1PXI,1PXJ,1PXK,1PXL,1PXM,1PXN,1PXO,1PXP,1PYE,1QMZ,1R78,1URC,1URW,1V1K,1VYW,1VYZ,1W0X,1W8C,1W98,1WCC,1Y8Y,1Y91,1YKR,2A0C,2A4L,2B52,2B53,2B54,2B55,2BHE,2BHH,2BKZ,2BPM,2BTR,2BTS,2C4G,2C5N,2C5O,2C5V,2C5X,2C5Y,2C68,2C69,2C6I,2C6K,2C6L,2C6M,2C6O,2C6T,2CCH,2CCI,2CJM,2CLX,2DUV,2EXM,2FVD,2G9X,2I40,2J9M,2JGZ,2R3F,2R3G,2R3H,2R3I,2R3J,2R3K,2R3L,2R3M,2R3N,2R3O,2R3P,2R3Q,2R3R,2R64,2UUE,2UZB,2UZD,2UZE,2UZL,2UZN,2UZO,2V0D,2V22,2VTA,2VTH,2VTI,2VTJ,2VTL,2VTM,2VTN,2VTO,2VTP,2VTQ,2VTR,2VTS,2VTT,2VU3,2VV9,2W05,2W06,2W17,2W1H,2WEV,2WFY,2WHB,2WIH,2WIP,2WMA,2WMB,2WPA,2WXV,2X1N,2XMY,2XNB,3BHT,3BHU,3BHV,3DDP,3DDQ,3DOG,3EID,3EJ1,3EOC,3EZR,3EZV,3F5X,3FZ1,3IG7,3IGG,3LE6,3LFN,3LFQ,3LFS,3MY5,3NS9,3PJ8,3PXF,3PXQ,3PXR,3PXY,3PXZ,3PY0,3PY1,3QHR,3QHW,3QL8,3QQF,3QQG,3QQH,3QQJ,3QQK,3QQL,3QRT,3QRU,3QTQ,3QTR,3QTS,3QTU,3QTW,3QTX,3QTZ,3QU0,3QWJ,3QWK,3QX2,3QX4,3QXO,3QXP,3QZF,3QZG,3QZH,3QZI,3R1Q,3R1S,3R1Y,3R28,3R6X,3R71,3R73,3R7E,3R7I,3R7U,3R7V,3R7Y,3R83,3R8L,3R8M,3R8P,3R8U,3R8V,3R8Z,3R9D,3R9H,3R9N,3R9O,3RAH,3RAI,3RAK,3RAL,3RJC,3RK5,3RK7,3RK9,3RKB,3RM6,3RM7,3RMF,3RNI,3ROY,3RPO,3RPR,3RPV,3RPY,3RZB,3S00,3S0O,3S1H,3S2P,3SQQ,3SW4,3SW7,3TI1,3TIY,3TIZ,3TNW,3ULI,3UNJ,3UNK,3WBL,4ACM,4BCK,4BCM,4BCN,4BCO,4BCP,4BCQ,4BGH,4BZD,4CFM,4CFN,4CFU,4CFV,4CFW,4CFX,4D1X,4D1Z,4EK3,4EK4,4EK5,4EK6,4EK8,4EOQ,4EOR,4EOS,4ERW,4EZ3,4EZ7,4FKG,4FKI,4FKJ,4FKL,4FKO,4FKP,4FKQ,4FKR,4FKS,4FKT,4FKU,4FKV,4FKW,4FX3,4GCJ,4I3Z,4II5,4KD1,4LYN,4NJ3,4RJ3,5A14,5AND,5ANE,5ANG,5ANI,5ANJ,5ANK,5ANO,5CYI,5D1J,5FP5,5FP6,5IEV,5IEX,5IEY,5IF1,5JQ5,5JQ8,5K4J,5L2W,5LMK,5MHQ,5NEV,5OO0,5OSJ,5UQ1,5UQ2,5UQ3,6ATH,6GUB,6GUC,6GUE,6GUF,6GUH,6GUK,6GVA,6INL,6JGM,6OQI,6P3W,6Q3B,6Q3C,6Q3F,6Q48,6Q49,6Q4A,6Q4B,6Q4C,6Q4D,6Q4E,6Q4F,6Q4H,6Q4J,6Q4K,6RIJ,6SG4,7ACK,7B5L,7B5R,7B7S,7E34,7KJS,7M2F,7NVQ

> <UniProt (SwissProt) Recommended Name of Target Chain>
Cyclin-dependent kinase 2

> <UniProt (SwissProt) Entry Name of Target Chain>
CDK2_HUMAN

> <UniProt (SwissProt) Primary ID of Target Chain>
P24941

> <UniProt (SwissProt) Secondary ID(s) of Target Chain>
A8K7C6,O75100

> <UniProt (SwissProt) Alternative ID(s) of Target Chain>


> <UniProt (TrEMBL) Submitted Name of Target Chain>


> <UniProt (TrEMBL) Entry Name of Target Chain>


> <UniProt (TrEMBL) Primary ID of Target Chain>
A0A024RB77

> <UniProt (TrEMBL) Secondary ID(s) of Target Chain>


> <UniProt (TrEMBL) Alternative ID(s) of Target Chain>


$$$$
2-Anilino-4-_thiazol-5-yl_pyrimidine

Vconf v2.0 Academic SN VC001-00000579
 24 25  0  0  0  0  0  0  0  0999 V2000
   -0.7300    4.7770    0.2820 C   0  0  0  0  0  0  0  0  0  0  0
   -2.5210    3.4600    0.3870 C   0  0  0  0  0  0  0  0  0  0  0
   -1.5020    2.5350    0.6410 C   0  0  0  0  0  0  0  0  0  0  0
   -2.0640    4.7030    0.1910 N   0  0  0  0  0  0  0  0  0  0  0
   -0.0030    6.0320    0.1070 C   0  0  0  0  0  0  0  0  0  0  0
   -3.9590    3.1730    0.3270 C   0  0  0  0  0  0  0  0  0  0  0
    0.0640    3.2790    0.6240 S   0  0  0  0  0  0  0  0  0  0  0
   -1.6560    1.1550    0.8900 C   0  0  0  0  0  0  0  0  0  0  0
   -0.5330    0.3410    1.1310 C   0  0  0  0  0  0  0  0  0  0  0
   -0.7440   -1.0240    1.3720 C   0  0  0  0  0  0  0  0  0  0  0
   -3.0720   -0.7390    1.1390 C   0  0  0  0  0  0  0  0  0  0  0
   -2.8870    0.5800    0.9030 N   0  0  0  0  0  0  0  0  0  0  0
   -2.0000   -1.5290    1.3710 N   0  0  0  0  0  0  0  0  0  0  0
   -4.3040   -1.2550    1.1420 N   0  0  0  0  0  0  0  0  0  0  0
    1.0670    5.8550    0.2210 H   0  0  0  0  0  0  0  0  0  0  0
   -0.1990    6.4310   -0.8880 H   0  0  0  0  0  0  0  0  0  0  0
   -0.3320    6.7500    0.8580 H   0  0  0  0  0  0  0  0  0  0  0
   -4.5120    4.0890    0.1150 H   0  0  0  0  0  0  0  0  0  0  0
   -4.1590    2.4500   -0.4650 H   0  0  0  0  0  0  0  0  0  0  0
   -4.2960    2.7710    1.2830 H   0  0  0  0  0  0  0  0  0  0  0
    0.4150    0.7180    1.1330 H   0  0  0  0  0  0  0  0  0  0  0
    0.0500   -1.6390    1.5500 H   0  0  0  0  0  0  0  0  0  0  0
   -4.4290   -2.2010    1.3120 H   0  0  0  0  0  0  0  0  0  0  0
   -5.0680   -0.6830    0.9740 H   0  0  0  0  0  0  0  0  0  0  0
  1  4  2  0  0  0  0
  1  5  1  0  0  0  0
  1  7  1  0  0  0  0
  2  3  2  0  0  0  0
  2  4  1  0  0  0  0
  2  6  1  0  0  0  0
  3  7  1  0  0  0  0
  3  8  1  0  0  0  0
  5 15  1  0  0  0  0
  5 16  1  0  0  0  0
  5 17  1  0  0  0  0
  6 18  1  0  0  0  0
  6 19  1  0  0  0  0
  6 20  1  0  0  0  0
  8  9  2  0  0  0  0
  8 12  1  0  0  0  0
  9 10  1  0  0  0  0
  9 21  1  0  0  0  0
 10 13  2  0  0  0  0
 10 22  1  0  0  0  0
 11 12  2  0  0  0  0
 11 13  1  0  0  0  0
 11 14  1  0  0  0  0
 14 23  1  0  0  0  0
 14 24  1  0  0  0  0
M  END
> <From>
www.bindingDB.org

> <BindingDB Reactant_set_id>
51251922

> <Ligand InChI>
InChI=1S/C9H10N4S/c1-5-8(14-6(2)12-5)7-3-4-11-9(10)13-7/h3-4H,1-2H3,(H2,10,11,13)

> <Ligand InChI Key>
CTFDMGIBHFQWKB-UHFFFAOYSA-N

> <BindingDB MonomerID>
8037

> <BindingDB Ligand Name>
2-Anilino-4-(thiazol-5-yl)pyrimidine deriv. 8::4-(2,4-Dimethylthiazol-5-yl)pyrimidin-2-ylamine::4-(2,4-dimethyl-1,3-thiazol-5-yl)pyrimidin-2-amine::4-(dimethyl-1,3-thiazol-5-yl)pyrimidin-2-amine, 1::CS12

> <Target Name Assigned by Curator or DataSource>
Cyclin-dependent kinase 2

> <Target Source Organism According to Curator or DataSource>
Homo sapiens

> <Ki (nM)>
 396

> <IC50 (nM)>


> <Kd (nM)>


> <EC50 (nM)>


> <kon (M-1-s-1)>


> <koff (s-1)>


> <pH>


> <Temp C>


> <Curation/DataSource>
ChEMBL

> <Article DOI>
10.1021/acs.jmedchem.8b01469

> <PMID>
30543440

> <PubChem AID>


> <Patent Number>


> <Authors>
Tadesse, S; Caldon, EC; Tilley, W; Wang, S

> <Institution>
University of South Australia Cancer Research Institute

> <Link to Ligand in BindingDB>
http://www.bindingdb.org/bind/chemsearch/marvin/MolStructure.jsp?monomerid=8037

> <Link to Ligand-Target Pair in BindingDB>
http://www.bindingdb.org/jsp/dbsearch/PrimarySearch_ki.jsp?energyterm=kJ/mole&tag=pol&polymerid=796&target=Cyclin-dependent+kinase+2&column=ki&startPg=0&Increment=50&submit=Search

> <Link to Ligand-Target Pair in BindingDB>
http://www.bindingdb.org/jsp/dbsearch/PrimarySearch_ki.jsp?energyterm=kJ/mole&tag=r21&monomerid=8037&enzyme=Cyclin-dependent+kinase+2&column=ki&startPg=0&Increment=50&submit=Search

> <Ligand HET ID in PDB>
CK2

> <PDB ID(s) for Ligand-Target Complex>
1PXJ,4FKL,2C5O

> <PubChem CID>
447956

> <PubChem SID>
11108791

> <ChEBI ID of Ligand>


> <ChEMBL ID of Ligand>


> <DrugBank ID of Ligand>
DB02091

> <IUPHAR_GRAC ID of Ligand>


> <KEGG ID of Ligand>


> <ZINC ID of Ligand>
ZINC00141286

> <Number of Protein Chains in Target (bigger than 1 implies a multichain complex)>
1

> <BindingDB Target Chain Sequence>
MENFQKVEKIGEGTYGVVYKARNKLTGEVVALKKIRLDTETEGVPSTAIREISLLKELNHPNIVKLLDVIHTENKLYLVFEFLHQDLKKFMDASALTGIPLPLIKSYLFQLLQGLAFCHSHRVLHRDLKPQNLLINTEGAIKLADFGLARAFGVPVRTYTHEVVTLWYRAPEILLGCKYYSTAVDIWSLGCIFAEMVTRRALFPGDSEIDQLFRIFRTLGTPDEVVWPGVTSMPDYKPSFPKWARQDFSKVVPPLDEDGRSLLSQMLHYDPNKRISAKAALAHPFFQDVTKPVPHLRL

> <PDB ID(s) of Target Chain>
1CKP,1DI8,1DM2,1E1V,1E1X,1E9H,1F5Q,1FIN,1FQ1,1FVT,1FVV,1G5S,1GIH,1GY3,1GZ8,1H00,1H01,1H07,1H08,1H0V,1H0W,1H1P,1H1Q,1H1R,1H1S,1H24,1H25,1H26,1H27,1H28,1HCK,1HCL,1JST,1JSU,1JSV,1JVP,1KE5,1KE6,1KE7,1KE8,1KE9,1OGU,1OI9,1OIQ,1OIR,1OIU,1OIY,1OKV,1OKW,1OL1,1OL2,1P2A,1P5E,1PF8,1PKD,1PW2,1PXI,1PXJ,1PXK,1PXL,1PXM,1PXN,1PXO,1PXP,1PYE,1QMZ,1R78,1URC,1URW,1V1K,1VYW,1VYZ,1W0X,1W8C,1W98,1WCC,1Y8Y,1Y91,1YKR,2A0C,2A4L,2B52,2B53,2B54,2B55,2BHE,2BHH,2BKZ,2BPM,2BTR,2BTS,2C4G,2C5N,2C5O,2C5V,2C5X,2C5Y,2C68,2C69,2C6I,2C6K,2C6L,2C6M,2C6O,2C6T,2CCH,2CCI,2CJM,2CLX,2DUV,2EXM,2FVD,2G9X,2I40,2J9M,2JGZ,2R3F,2R3G,2R3H,2R3I,2R3J,2R3K,2R3L,2R3M,2R3N,2R3O,2R3P,2R3Q,2R3R,2R64,2UUE,2UZB,2UZD,2UZE,2UZL,2UZN,2UZO,2V0D,2V22,2VTA,2VTH,2VTI,2VTJ,2VTL,2VTM,2VTN,2VTO,2VTP,2VTQ,2VTR,2VTS,2VTT,2VU3,2VV9,2W05,2W06,2W17,2W1H,2WEV,2WFY,2WHB,2WIH,2WIP,2WMA,2WMB,2WPA,2WXV,2X1N,2XMY,2XNB,3BHT,3BHU,3BHV,3DDP,3DDQ,3DOG,3EID,3EJ1,3EOC,3EZR,3EZV,3F5X,3FZ1,3IG7,3IGG,3LE6,3LFN,3LFQ,3LFS,3MY5,3NS9,3PJ8,3PXF,3PXQ,3PXR,3PXY,3PXZ,3PY0,3PY1,3QHR,3QHW,3QL8,3QQF,3QQG,3QQH,3QQJ,3QQK,3QQL,3QRT,3QRU,3QTQ,3QTR,3QTS,3QTU,3QTW,3QTX,3QTZ,3QU0,3QWJ,3QWK,3QX2,3QX4,3QXO,3QXP,3QZF,3QZG,3QZH,3QZI,3R1Q,3R1S,3R1Y,3R28,3R6X,3R71,3R73,3R7E,3R7I,3R7U,3R7V,3R7Y,3R83,3R8L,3R8M,3R8P,3R8U,3R8V,3R8Z,3R9D,3R9H,3R9N,3R9O,3RAH,3RAI,3RAK,3RAL,3RJC,3RK5,3RK7,3RK9,3RKB,3RM6,3RM7,3RMF,3RNI,3ROY,3RPO,3RPR,3RPV,3RPY,3RZB,3S00,3S0O,3S1H,3S2P,3SQQ,3SW4,3SW7,3TI1,3TIY,3TIZ,3TNW,3ULI,3UNJ,3UNK,3WBL,4ACM,4BCK,4BCM,4BCN,4BCO,4BCP,4BCQ,4BGH,4BZD,4CFM,4CFN,4CFU,4CFV,4CFW,4CFX,4D1X,4D1Z,4EK3,4EK4,4EK5,4EK6,4EK8,4EOQ,4EOR,4EOS,4ERW,4EZ3,4EZ7,4FKG,4FKI,4FKJ,4FKL,4FKO,4FKP,4FKQ,4FKR,4FKS,4FKT,4FKU,4FKV,4FKW,4FX3,4GCJ,4I3Z,4II5,4KD1,4LYN,4NJ3,4RJ3,5A14,5AND,5ANE,5ANG,5ANI,5ANJ,5ANK,5ANO,5CYI,5D1J,5FP5,5FP6,5IEV,5IEX,5IEY,5IF1,5JQ5,5JQ8,5K4J,5L2W,5LMK,5MHQ,5NEV,5OO0,5OSJ,5UQ1,5UQ2,5UQ3,6ATH,6GUB,6GUC,6GUE,6GUF,6GUH,6GUK,6GVA,6INL,6JGM,6OQI,6P3W,6Q3B,6Q3C,6Q3F,6Q48,6Q49,6Q4A,6Q4B,6Q4C,6Q4D,6Q4E,6Q4F,6Q4H,6Q4J,6Q4K,6RIJ,6SG4,7ACK,7B5L,7B5R,7B7S,7E34,7KJS,7M2F,7NVQ

> <UniProt (SwissProt) Recommended Name of Target Chain>
Cyclin-dependent kinase 2

> <UniProt (SwissProt) Entry Name of Target Chain>
CDK2_HUMAN

> <UniProt (SwissProt) Primary ID of Target Chain>
P24941

> <UniProt (SwissProt) Secondary ID(s) of Target Chain>
A8K7C6,O75100

> <UniProt (SwissProt) Alternative ID(s) of Target Chain>


> <UniProt (TrEMBL) Submitted Name of Target Chain>


> <UniProt (TrEMBL) Entry Name of Target Chain>


> <UniProt (TrEMBL) Primary ID of Target Chain>
A0A024RB77

> <UniProt (TrEMBL) Secondary ID(s) of Target Chain>


> <UniProt (TrEMBL) Alternative ID(s) of Target Chain>


$$$$
BindingDB_50229973_mol_1

Vconf v2.0 Academic SN VC001-00000579
 35 37  0  0  0  0  0  0  0  0999 V2000
    3.2170    1.4560    0.7210 C   0  0  0  0  0  0  0  0  0  0  0
    2.9680   -0.6550   -0.1200 N   0  0  0  0  0  0  0  0  0  0  0
    4.2950   -0.4940   -0.1610 C   0  0  0  0  0  0  0  0  0  0  0
    2.3400    0.4230    0.3680 C   0  0  0  0  0  0  0  0  0  0  0
   -2.7450    1.6330   -0.4320 N   0  3  0  0  0  0  0  0  0  0  0
    4.8700    1.0340    0.4110 S   0  0  0  0  0  0  0  0  0  0  0
    1.5810    3.0330    1.5390 N   0  0  0  0  0  0  0  0  0  0  0
    1.2110    4.2220    2.0790 C   0  0  0  0  0  0  0  0  0  0  0
    2.8740    2.7090    1.2730 C   0  0  0  0  0  0  0  0  0  0  0
   -2.5390    2.2930    0.7480 C   0  0  0  0  0  0  0  0  0  0  0
   -0.0720    4.5500    2.3650 N   0  0  0  0  0  0  0  0  0  0  0
   -1.3970    3.1030    0.9370 C   0  0  0  0  0  0  0  0  0  0  0
    2.1740    5.1280    2.3660 N   0  0  0  0  0  0  0  0  0  0  0
   -3.7770    1.0540   -0.6660 O   0  5  0  0  0  0  0  0  0  0  0
   -1.9040    1.5890   -1.2910 O   0  0  0  0  0  0  0  0  0  0  0
   -1.1590    3.7660    2.1590 C   0  0  0  0  0  0  0  0  0  0  0
    5.1130   -1.4490   -0.6150 N   0  0  0  0  0  0  0  0  0  0  0
    3.8730    3.6540    1.5700 C   0  0  0  0  0  0  0  0  0  0  0
    3.4820    4.8790    2.1260 C   0  0  0  0  0  0  0  0  0  0  0
    0.8780    0.4490    0.4780 C   0  0  0  0  0  0  0  0  0  0  0
   -3.4620    2.1830    1.8120 C   0  0  0  0  0  0  0  0  0  0  0
   -3.2500    2.8600    3.0240 C   0  0  0  0  0  0  0  0  0  0  0
   -2.1040    3.6510    3.1950 C   0  0  0  0  0  0  0  0  0  0  0
   -0.2160    5.4020    2.8030 H   0  0  0  0  0  0  0  0  0  0  0
   -0.7270    3.2090    0.1750 H   0  0  0  0  0  0  0  0  0  0  0
    6.0710   -1.3010   -0.6340 H   0  0  0  0  0  0  0  0  0  0  0
    4.7440   -2.2900   -0.9280 H   0  0  0  0  0  0  0  0  0  0  0
    4.8610    3.4670    1.3930 H   0  0  0  0  0  0  0  0  0  0  0
    4.1840    5.5840    2.3530 H   0  0  0  0  0  0  0  0  0  0  0
    0.4620   -0.5020    0.1440 H   0  0  0  0  0  0  0  0  0  0  0
    0.5840    0.6190    1.5140 H   0  0  0  0  0  0  0  0  0  0  0
    0.4830    1.2450   -0.1520 H   0  0  0  0  0  0  0  0  0  0  0
   -4.2970    1.6060    1.7050 H   0  0  0  0  0  0  0  0  0  0  0
   -3.9290    2.7740    3.7810 H   0  0  0  0  0  0  0  0  0  0  0
   -1.9560    4.1390    4.0790 H   0  0  0  0  0  0  0  0  0  0  0
  1  4  2  0  0  0  0
  1  6  1  0  0  0  0
  1  9  1  0  0  0  0
  2  3  2  0  0  0  0
  2  4  1  0  0  0  0
  3  6  1  0  0  0  0
  3 17  1  0  0  0  0
  4 20  1  0  0  0  0
  5 10  1  0  0  0  0
  5 14  1  0  0  0  0
  5 15  2  0  0  0  0
  7  8  1  0  0  0  0
  7  9  2  0  0  0  0
  8 11  1  0  0  0  0
  8 13  2  0  0  0  0
  9 18  1  0  0  0  0
 10 12  2  0  0  0  0
 10 21  1  0  0  0  0
 11 16  1  0  0  0  0
 11 24  1  0  0  0  0
 12 16  1  0  0  0  0
 12 25  1  0  0  0  0
 13 19  1  0  0  0  0
 16 23  2  0  0  0  0
 17 26  1  0  0  0  0
 17 27  1  0  0  0  0
 18 19  2  0  0  0  0
 18 28  1  0  0  0  0
 19 29  1  0  0  0  0
 20 30  1  0  0  0  0
 20 31  1  0  0  0  0
 20 32  1  0  0  0  0
 21 22  2  0  0  0  0
 21 33  1  0  0  0  0
 22 23  1  0  0  0  0
 22 34  1  0  0  0  0
 23 35  1  0  0  0  0
M  CHG  1   5   1
M  CHG  1  14  -1
M  END
> <From>
www.bindingDB.org

> <BindingDB Reactant_set_id>
51251926

> <Ligand InChI>
InChI=1S/C14H12N6O2S/c1-8-12(23-13(15)17-8)11-5-6-16-14(19-11)18-9-3-2-4-10(7-9)20(21)22/h2-7H,1H3,(H2,15,17)(H,16,18,19)

> <Ligand InChI Key>
DYTKVFHLKPDNRW-UHFFFAOYSA-N

> <BindingDB MonomerID>
50229973

> <BindingDB Ligand Name>
(4-(2-Amino-4-methylthiazol-5-yl)pyrimidin-2-yl)-(3-nitrophenyl)amine::4-methyl-5-(2-(3-nitrophenylamino)pyrimidin-4-yl)thiazol-2-amine::CHEMBL298445::[4-(2-AMINO-4-METHYL-THIAZOL-5-YL)-PYRIMIDIN-2-YL]-(3-NITRO-PHENYL)-AMINE

> <Target Name Assigned by Curator or DataSource>
Cyclin-dependent kinase 2

> <Target Source Organism According to Curator or DataSource>
Homo sapiens

> <Ki (nM)>
 396

> <IC50 (nM)>


> <Kd (nM)>


> <EC50 (nM)>


> <kon (M-1-s-1)>


> <koff (s-1)>


> <pH>


> <Temp C>


> <Curation/DataSource>
ChEMBL

> <Article DOI>
10.1021/acs.jmedchem.8b01469

> <PMID>
30543440

> <PubChem AID>


> <Patent Number>


> <Authors>
Tadesse, S; Caldon, EC; Tilley, W; Wang, S

> <Institution>
University of South Australia Cancer Research Institute

> <Link to Ligand in BindingDB>
http://www.bindingdb.org/bind/chemsearch/marvin/MolStructure.jsp?monomerid=50229973

> <Link to Ligand-Target Pair in BindingDB>
http://www.bindingdb.org/jsp/dbsearch/PrimarySearch_ki.jsp?energyterm=kJ/mole&tag=pol&polymerid=796&target=Cyclin-dependent+kinase+2&column=ki&startPg=0&Increment=50&submit=Search

> <Link to Ligand-Target Pair in BindingDB>
http://www.bindingdb.org/jsp/dbsearch/PrimarySearch_ki.jsp?energyterm=kJ/mole&tag=r21&monomerid=50229973&enzyme=Cyclin-dependent+kinase+2&column=ki&startPg=0&Increment=50&submit=Search

> <Ligand HET ID in PDB>
CK7

> <PDB ID(s) for Ligand-Target Complex>
1PXO,2WEV,4B9D

> <PubChem CID>
447961

> <PubChem SID>
104098225

> <ChEBI ID of Ligand>


> <ChEMBL ID of Ligand>
CHEMBL298445

> <DrugBank ID of Ligand>
DB02833

> <IUPHAR_GRAC ID of Ligand>


> <KEGG ID of Ligand>


> <ZINC ID of Ligand>
ZINC02047389

> <Number of Protein Chains in Target (bigger than 1 implies a multichain complex)>
1

> <BindingDB Target Chain Sequence>
MENFQKVEKIGEGTYGVVYKARNKLTGEVVALKKIRLDTETEGVPSTAIREISLLKELNHPNIVKLLDVIHTENKLYLVFEFLHQDLKKFMDASALTGIPLPLIKSYLFQLLQGLAFCHSHRVLHRDLKPQNLLINTEGAIKLADFGLARAFGVPVRTYTHEVVTLWYRAPEILLGCKYYSTAVDIWSLGCIFAEMVTRRALFPGDSEIDQLFRIFRTLGTPDEVVWPGVTSMPDYKPSFPKWARQDFSKVVPPLDEDGRSLLSQMLHYDPNKRISAKAALAHPFFQDVTKPVPHLRL

> <PDB ID(s) of Target Chain>
1CKP,1DI8,1DM2,1E1V,1E1X,1E9H,1F5Q,1FIN,1FQ1,1FVT,1FVV,1G5S,1GIH,1GY3,1GZ8,1H00,1H01,1H07,1H08,1H0V,1H0W,1H1P,1H1Q,1H1R,1H1S,1H24,1H25,1H26,1H27,1H28,1HCK,1HCL,1JST,1JSU,1JSV,1JVP,1KE5,1KE6,1KE7,1KE8,1KE9,1OGU,1OI9,1OIQ,1OIR,1OIU,1OIY,1OKV,1OKW,1OL1,1OL2,1P2A,1P5E,1PF8,1PKD,1PW2,1PXI,1PXJ,1PXK,1PXL,1PXM,1PXN,1PXO,1PXP,1PYE,1QMZ,1R78,1URC,1URW,1V1K,1VYW,1VYZ,1W0X,1W8C,1W98,1WCC,1Y8Y,1Y91,1YKR,2A0C,2A4L,2B52,2B53,2B54,2B55,2BHE,2BHH,2BKZ,2BPM,2BTR,2BTS,2C4G,2C5N,2C5O,2C5V,2C5X,2C5Y,2C68,2C69,2C6I,2C6K,2C6L,2C6M,2C6O,2C6T,2CCH,2CCI,2CJM,2CLX,2DUV,2EXM,2FVD,2G9X,2I40,2J9M,2JGZ,2R3F,2R3G,2R3H,2R3I,2R3J,2R3K,2R3L,2R3M,2R3N,2R3O,2R3P,2R3Q,2R3R,2R64,2UUE,2UZB,2UZD,2UZE,2UZL,2UZN,2UZO,2V0D,2V22,2VTA,2VTH,2VTI,2VTJ,2VTL,2VTM,2VTN,2VTO,2VTP,2VTQ,2VTR,2VTS,2VTT,2VU3,2VV9,2W05,2W06,2W17,2W1H,2WEV,2WFY,2WHB,2WIH,2WIP,2WMA,2WMB,2WPA,2WXV,2X1N,2XMY,2XNB,3BHT,3BHU,3BHV,3DDP,3DDQ,3DOG,3EID,3EJ1,3EOC,3EZR,3EZV,3F5X,3FZ1,3IG7,3IGG,3LE6,3LFN,3LFQ,3LFS,3MY5,3NS9,3PJ8,3PXF,3PXQ,3PXR,3PXY,3PXZ,3PY0,3PY1,3QHR,3QHW,3QL8,3QQF,3QQG,3QQH,3QQJ,3QQK,3QQL,3QRT,3QRU,3QTQ,3QTR,3QTS,3QTU,3QTW,3QTX,3QTZ,3QU0,3QWJ,3QWK,3QX2,3QX4,3QXO,3QXP,3QZF,3QZG,3QZH,3QZI,3R1Q,3R1S,3R1Y,3R28,3R6X,3R71,3R73,3R7E,3R7I,3R7U,3R7V,3R7Y,3R83,3R8L,3R8M,3R8P,3R8U,3R8V,3R8Z,3R9D,3R9H,3R9N,3R9O,3RAH,3RAI,3RAK,3RAL,3RJC,3RK5,3RK7,3RK9,3RKB,3RM6,3RM7,3RMF,3RNI,3ROY,3RPO,3RPR,3RPV,3RPY,3RZB,3S00,3S0O,3S1H,3S2P,3SQQ,3SW4,3SW7,3TI1,3TIY,3TIZ,3TNW,3ULI,3UNJ,3UNK,3WBL,4ACM,4BCK,4BCM,4BCN,4BCO,4BCP,4BCQ,4BGH,4BZD,4CFM,4CFN,4CFU,4CFV,4CFW,4CFX,4D1X,4D1Z,4EK3,4EK4,4EK5,4EK6,4EK8,4EOQ,4EOR,4EOS,4ERW,4EZ3,4EZ7,4FKG,4FKI,4FKJ,4FKL,4FKO,4FKP,4FKQ,4FKR,4FKS,4FKT,4FKU,4FKV,4FKW,4FX3,4GCJ,4I3Z,4II5,4KD1,4LYN,4NJ3,4RJ3,5A14,5AND,5ANE,5ANG,5ANI,5ANJ,5ANK,5ANO,5CYI,5D1J,5FP5,5FP6,5IEV,5IEX,5IEY,5IF1,5JQ5,5JQ8,5K4J,5L2W,5LMK,5MHQ,5NEV,5OO0,5OSJ,5UQ1,5UQ2,5UQ3,6ATH,6GUB,6GUC,6GUE,6GUF,6GUH,6GUK,6GVA,6INL,6JGM,6OQI,6P3W,6Q3B,6Q3C,6Q3F,6Q48,6Q49,6Q4A,6Q4B,6Q4C,6Q4D,6Q4E,6Q4F,6Q4H,6Q4J,6Q4K,6RIJ,6SG4,7ACK,7B5L,7B5R,7B7S,7E34,7KJS,7M2F,7NVQ

> <UniProt (SwissProt) Recommended Name of Target Chain>
Cyclin-dependent kinase 2

> <UniProt (SwissProt) Entry Name of Target Chain>
CDK2_HUMAN

> <UniProt (SwissProt) Primary ID of Target Chain>
P24941

> <UniProt (SwissProt) Secondary ID(s) of Target Chain>
A8K7C6,O75100

> <UniProt (SwissProt) Alternative ID(s) of Target Chain>


> <UniProt (TrEMBL) Submitted Name of Target Chain>


> <UniProt (TrEMBL) Entry Name of Target Chain>


> <UniProt (TrEMBL) Primary ID of Target Chain>
A0A024RB77

> <UniProt (TrEMBL) Secondary ID(s) of Target Chain>


> <UniProt (TrEMBL) Alternative ID(s) of Target Chain>


$$$$
ttt_mol_1

Vconf v2.1
 44 46  0  0  0  0  0  0  0  0999 V2000
    1.9290    3.1070    1.2330 N   0  0  0  0  0  0  0  0  0  0  0
    1.2320    2.0030    0.9340 C   0  0  0  0  0  0  0  0  0  0  0
    2.0480    0.9020    0.6470 C   0  0  0  0  0  0  0  0  0  0  0
    3.7310    1.2960    0.7760 S   0  0  0  0  0  0  0  0  0  0  0
    3.2500    2.9050    1.1930 C   0  0  0  0  0  0  0  0  0  0  0
   -0.2340    2.0230    0.9360 C   0  0  0  0  0  0  0  0  0  0  0
    4.1200    3.8940    1.4590 N   0  0  0  0  0  0  0  0  0  0  0
    1.6250   -0.3940    0.2790 C   0  0  0  0  0  0  0  0  0  0  0
    2.5690   -1.4040    0.0180 C   0  0  0  0  0  0  0  0  0  0  0
    2.0980   -2.6690   -0.3570 C   0  0  0  0  0  0  0  0  0  0  0
    0.7680   -2.8940   -0.4620 N   0  0  0  0  0  0  0  0  0  0  0
   -0.1410   -1.9250   -0.2070 C   0  0  0  0  0  0  0  0  0  0  0
    0.3060   -0.6960    0.1570 N   0  0  0  0  0  0  0  0  0  0  0
   -1.4530   -2.2310   -0.3500 N   0  0  0  0  0  0  0  0  0  0  0
   -2.4910   -1.3840   -0.1440 C   0  0  0  0  0  0  0  0  0  0  0
   -4.6060   -0.4610   -0.9410 C   0  0  0  0  0  0  0  0  0  0  0
   -3.5050   -1.3160   -1.1190 C   0  0  0  0  0  0  0  0  0  0  0
   -2.6110   -0.6070    1.0270 C   0  0  0  0  0  0  0  0  0  0  0
   -3.7090    0.2530    1.2100 C   0  0  0  0  0  0  0  0  0  0  0
   -4.7050    0.3250    0.2200 C   0  0  0  0  0  0  0  0  0  0  0
   -3.8310    1.2280    2.6420 S   0  0  0  0  0  0  0  0  0  0  0
   -5.3690    1.4760    2.9600 O   0  0  0  0  0  0  0  0  0  0  0
   -2.7130    0.8020    3.6890 O   0  0  0  0  0  0  0  0  0  0  0
    5.5220    3.6950    1.4210 C   0  0  0  0  0  0  0  0  0  0  0
    6.2350    5.0090    1.7590 C   0  0  0  0  0  0  0  0  0  0  0
   -3.3120    2.7360    2.1260 N   0  0  0  0  0  0  0  0  0  0  0
   -0.6130    1.7310   -0.0440 H   0  0  0  0  0  0  0  0  0  0  0
   -0.6050    1.3350    1.6950 H   0  0  0  0  0  0  0  0  0  0  0
   -0.5890    3.0280    1.1670 H   0  0  0  0  0  0  0  0  0  0  0
    3.7720    4.7710    1.6830 H   0  0  0  0  0  0  0  0  0  0  0
    3.5730   -1.2360    0.0930 H   0  0  0  0  0  0  0  0  0  0  0
    2.7580   -3.4220   -0.5550 H   0  0  0  0  0  0  0  0  0  0  0
   -1.6620   -3.1210   -0.6730 H   0  0  0  0  0  0  0  0  0  0  0
   -5.3340   -0.4100   -1.6540 H   0  0  0  0  0  0  0  0  0  0  0
   -3.4410   -1.8840   -1.9640 H   0  0  0  0  0  0  0  0  0  0  0
   -1.8940   -0.6660    1.7510 H   0  0  0  0  0  0  0  0  0  0  0
   -5.5030    0.9480    0.3460 H   0  0  0  0  0  0  0  0  0  0  0
    5.8120    2.9360    2.1490 H   0  0  0  0  0  0  0  0  0  0  0
    5.8270    3.3730    0.4230 H   0  0  0  0  0  0  0  0  0  0  0
    7.3130    4.8540    1.7340 H   0  0  0  0  0  0  0  0  0  0  0
    5.9650    5.7740    1.0300 H   0  0  0  0  0  0  0  0  0  0  0
    5.9440    5.3410    2.7570 H   0  0  0  0  0  0  0  0  0  0  0
   -2.3860    2.9930    2.2470 H   0  0  0  0  0  0  0  0  0  0  0
   -3.9430    3.3520    1.7240 H   0  0  0  0  0  0  0  0  0  0  0
  1  2  1  0  0  0  0
  1  5  2  0  0  0  0
  2  3  2  0  0  0  0
  2  6  1  0  0  0  0
  3  4  1  0  0  0  0
  3  8  1  0  0  0  0
  4  5  1  0  0  0  0
  5  7  1  0  0  0  0
  6 27  1  0  0  0  0
  6 28  1  0  0  0  0
  6 29  1  0  0  0  0
  7 24  1  0  0  0  0
  7 30  1  0  0  0  0
  8  9  2  0  0  0  0
  8 13  1  0  0  0  0
  9 10  1  0  0  0  0
  9 31  1  0  0  0  0
 10 11  2  0  0  0  0
 10 32  1  0  0  0  0
 11 12  1  0  0  0  0
 12 13  2  0  0  0  0
 12 14  1  0  0  0  0
 14 15  1  0  0  0  0
 14 33  1  0  0  0  0
 15 17  2  0  0  0  0
 15 18  1  0  0  0  0
 16 17  1  0  0  0  0
 16 20  2  0  0  0  0
 16 34  1  0  0  0  0
 17 35  1  0  0  0  0
 18 19  2  0  0  0  0
 18 36  1  0  0  0  0
 19 20  1  0  0  0  0
 19 21  1  0  0  0  0
 20 37  1  0  0  0  0
 21 22  2  0  0  0  0
 21 23  2  0  0  0  0
 21 26  1  0  0  0  0
 24 25  1  0  0  0  0
 24 38  1  0  0  0  0
 24 39  1  0  0  0  0
 25 40  1  0  0  0  0
 25 41  1  0  0  0  0
 25 42  1  0  0  0  0
 26 43  1  0  0  0  0
 26 44  1  0  0  0  0
M  END
> <From>
www.bindingDB.org

> <BindingDB Reactant_set_id>
153779

> <Ligand InChI>
InChI=1S/C16H18N6O2S2/c1-3-18-16-20-10(2)14(25-16)13-7-8-19-15(22-13)21-11-5-4-6-12(9-11)26(17,23)24/h4-9H,3H2,1-2H3,(H,18,20)(H2,17,23,24)(H,19,21,22)

> <Ligand InChI Key>
TWVJVNNYNNBYED-UHFFFAOYSA-N

> <BindingDB MonomerID>
81429

> <BindingDB Ligand Name>
CDK Inhibitor, 2

> <Target Name Assigned by Curator or DataSource>
Cyclin-dependent kinase 2

> <Target Source Organism According to Curator or DataSource>
Homo sapiens

> <Ki (nM)>
 403

> <IC50 (nM)>


> <Kd (nM)>


> <EC50 (nM)>


> <kon (M-1-s-1)>


> <koff (s-1)>


> <pH>


> <Temp C>


> <Curation/DataSource>
Curated from the literature by BindingDB

> <Article DOI>
10.1016/j.chembiol.2010.07.016

> <PMID>
21035734

> <PubChem AID>


> <Patent Number>


> <Authors>
Wang, S; Griffiths, G; Midgley, CA; Barnett, AL; Cooper, M; Grabarek, J; Ingram, L; Jackson, W; Kontopidis, G; McClue, SJ; McInnes, C; McLachlan, J; Meades, C; Mezna, M; Stuart, I; Thomas, MP; Zheleva, DI; Lane, DP; Jackson, RC; Glover, DM; Blake, DG; Fischer, PM

> <Institution>
Cyclacel Limited

> <Link to Ligand in BindingDB>
http://www.bindingdb.org/bind/chemsearch/marvin/MolStructure.jsp?monomerid=81429

> <Link to Ligand-Target Pair in BindingDB>
http://www.bindingdb.org/jsp/dbsearch/PrimarySearch_ki.jsp?energyterm=kJ/mole&tag=pol&polymerid=796&target=Cyclin-dependent+kinase+2&column=ki&startPg=0&Increment=50&submit=Search

> <Link to Ligand-Target Pair in BindingDB>
http://www.bindingdb.org/jsp/dbsearch/PrimarySearch_ki.jsp?energyterm=kJ/mole&tag=r21&monomerid=81429&enzyme=Cyclin-dependent+kinase+2&column=ki&startPg=0&Increment=50&submit=Search

> <Ligand HET ID in PDB>


> <PDB ID(s) for Ligand-Target Complex>


> <PubChem CID>
11696791

> <PubChem SID>
131342003

> <ChEBI ID of Ligand>


> <ChEMBL ID of Ligand>


> <DrugBank ID of Ligand>


> <IUPHAR_GRAC ID of Ligand>


> <KEGG ID of Ligand>


> <ZINC ID of Ligand>
ZINC38268005

> <Number of Protein Chains in Target (bigger than 1 implies a multichain complex)>
1

> <BindingDB Target Chain Sequence>
MENFQKVEKIGEGTYGVVYKARNKLTGEVVALKKIRLDTETEGVPSTAIREISLLKELNHPNIVKLLDVIHTENKLYLVFEFLHQDLKKFMDASALTGIPLPLIKSYLFQLLQGLAFCHSHRVLHRDLKPQNLLINTEGAIKLADFGLARAFGVPVRTYTHEVVTLWYRAPEILLGCKYYSTAVDIWSLGCIFAEMVTRRALFPGDSEIDQLFRIFRTLGTPDEVVWPGVTSMPDYKPSFPKWARQDFSKVVPPLDEDGRSLLSQMLHYDPNKRISAKAALAHPFFQDVTKPVPHLRL

> <PDB ID(s) of Target Chain>
1CKP,1DI8,1DM2,1E1V,1E1X,1E9H,1F5Q,1FIN,1FQ1,1FVT,1FVV,1G5S,1GIH,1GY3,1GZ8,1H00,1H01,1H07,1H08,1H0V,1H0W,1H1P,1H1Q,1H1R,1H1S,1H24,1H25,1H26,1H27,1H28,1HCK,1HCL,1JST,1JSU,1JSV,1JVP,1KE5,1KE6,1KE7,1KE8,1KE9,1OGU,1OI9,1OIQ,1OIR,1OIU,1OIY,1OKV,1OKW,1OL1,1OL2,1P2A,1P5E,1PF8,1PKD,1PW2,1PXI,1PXJ,1PXK,1PXL,1PXM,1PXN,1PXO,1PXP,1PYE,1QMZ,1R78,1URC,1URW,1V1K,1VYW,1VYZ,1W0X,1W8C,1W98,1WCC,1Y8Y,1Y91,1YKR,2A0C,2A4L,2B52,2B53,2B54,2B55,2BHE,2BHH,2BKZ,2BPM,2BTR,2BTS,2C4G,2C5N,2C5O,2C5V,2C5X,2C5Y,2C68,2C69,2C6I,2C6K,2C6L,2C6M,2C6O,2C6T,2CCH,2CCI,2CJM,2CLX,2DUV,2EXM,2FVD,2G9X,2I40,2J9M,2JGZ,2R3F,2R3G,2R3H,2R3I,2R3J,2R3K,2R3L,2R3M,2R3N,2R3O,2R3P,2R3Q,2R3R,2R64,2UUE,2UZB,2UZD,2UZE,2UZL,2UZN,2UZO,2V0D,2V22,2VTA,2VTH,2VTI,2VTJ,2VTL,2VTM,2VTN,2VTO,2VTP,2VTQ,2VTR,2VTS,2VTT,2VU3,2VV9,2W05,2W06,2W17,2W1H,2WEV,2WFY,2WHB,2WIH,2WIP,2WMA,2WMB,2WPA,2WXV,2X1N,2XMY,2XNB,3BHT,3BHU,3BHV,3DDP,3DDQ,3DOG,3EID,3EJ1,3EOC,3EZR,3EZV,3F5X,3FZ1,3IG7,3IGG,3LE6,3LFN,3LFQ,3LFS,3MY5,3NS9,3PJ8,3PXF,3PXQ,3PXR,3PXY,3PXZ,3PY0,3PY1,3QHR,3QHW,3QL8,3QQF,3QQG,3QQH,3QQJ,3QQK,3QQL,3QRT,3QRU,3QTQ,3QTR,3QTS,3QTU,3QTW,3QTX,3QTZ,3QU0,3QWJ,3QWK,3QX2,3QX4,3QXO,3QXP,3QZF,3QZG,3QZH,3QZI,3R1Q,3R1S,3R1Y,3R28,3R6X,3R71,3R73,3R7E,3R7I,3R7U,3R7V,3R7Y,3R83,3R8L,3R8M,3R8P,3R8U,3R8V,3R8Z,3R9D,3R9H,3R9N,3R9O,3RAH,3RAI,3RAK,3RAL,3RJC,3RK5,3RK7,3RK9,3RKB,3RM6,3RM7,3RMF,3RNI,3ROY,3RPO,3RPR,3RPV,3RPY,3RZB,3S00,3S0O,3S1H,3S2P,3SQQ,3SW4,3SW7,3TI1,3TIY,3TIZ,3TNW,3ULI,3UNJ,3UNK,3WBL,4ACM,4BCK,4BCM,4BCN,4BCO,4BCP,4BCQ,4BGH,4BZD,4CFM,4CFN,4CFU,4CFV,4CFW,4CFX,4D1X,4D1Z,4EK3,4EK4,4EK5,4EK6,4EK8,4EOQ,4EOR,4EOS,4ERW,4EZ3,4EZ7,4FKG,4FKI,4FKJ,4FKL,4FKO,4FKP,4FKQ,4FKR,4FKS,4FKT,4FKU,4FKV,4FKW,4FX3,4GCJ,4I3Z,4II5,4KD1,4LYN,4NJ3,4RJ3,5A14,5AND,5ANE,5ANG,5ANI,5ANJ,5ANK,5ANO,5CYI,5D1J,5FP5,5FP6,5IEV,5IEX,5IEY,5IF1,5JQ5,5JQ8,5K4J,5L2W,5LMK,5MHQ,5NEV,5OO0,5OSJ,5UQ1,5UQ2,5UQ3,6ATH,6GUB,6GUC,6GUE,6GUF,6GUH,6GUK,6GVA,6INL,6JGM,6OQI,6P3W,6Q3B,6Q3C,6Q3F,6Q48,6Q49,6Q4A,6Q4B,6Q4C,6Q4D,6Q4E,6Q4F,6Q4H,6Q4J,6Q4K,6RIJ,6SG4,7ACK,7B5L,7B5R,7B7S,7E34,7KJS,7M2F,7NVQ

> <UniProt (SwissProt) Recommended Name of Target Chain>
Cyclin-dependent kinase 2

> <UniProt (SwissProt) Entry Name of Target Chain>
CDK2_HUMAN

> <UniProt (SwissProt) Primary ID of Target Chain>
P24941

> <UniProt (SwissProt) Secondary ID(s) of Target Chain>
A8K7C6,O75100

> <UniProt (SwissProt) Alternative ID(s) of Target Chain>


> <UniProt (TrEMBL) Submitted Name of Target Chain>


> <UniProt (TrEMBL) Entry Name of Target Chain>


> <UniProt (TrEMBL) Primary ID of Target Chain>
A0A024RB77

> <UniProt (TrEMBL) Secondary ID(s) of Target Chain>


> <UniProt (TrEMBL) Alternative ID(s) of Target Chain>


$$$$
BindingDB_50319627_mol_1

Vconf v2.0 Academic SN VC001-00000579
 53 56  0  0  0  0  0  0  0  0999 V2000
   14.0530  -24.4610    0.6760 C   0  0  0  0  0  0  0  0  0  0  0
   14.1520  -25.8600    0.7030 C   0  0  0  0  0  0  0  0  0  0  0
   15.3610  -26.4600    0.5890 N   0  0  0  0  0  0  0  0  0  0  0
   16.4980  -25.7410    0.4460 C   0  0  0  0  0  0  0  0  0  0  0
   16.4090  -24.3880    0.4210 N   0  0  0  0  0  0  0  0  0  0  0
   15.2370  -23.7160    0.5300 C   0  0  0  0  0  0  0  0  0  0  0
   17.6820  -26.3840    0.3300 N   0  0  0  0  0  0  0  0  0  0  0
   18.8560  -25.7340    0.1630 C   0  0  0  0  0  0  0  0  0  0  0
   19.2980  -25.3950   -1.1290 C   0  0  0  0  0  0  0  0  0  0  0
   20.4890  -24.6700   -1.3000 C   0  0  0  0  0  0  0  0  0  0  0
   21.2520  -24.2810   -0.1810 C   0  0  0  0  0  0  0  0  0  0  0
   20.8150  -24.6360    1.1100 C   0  0  0  0  0  0  0  0  0  0  0
   19.6240  -25.3610    1.2820 C   0  0  0  0  0  0  0  0  0  0  0
   15.2150  -22.3060    0.4960 C   0  0  0  0  0  0  0  0  0  0  0
   13.7280  -21.4230    0.6140 S   0  0  0  0  0  0  0  0  0  0  0
   14.6640  -19.9730    0.4850 C   0  0  0  0  0  0  0  0  0  0  0
   15.9850  -20.1600    0.3660 N   0  0  0  0  0  0  0  0  0  0  0
   16.3210  -21.4570    0.3700 C   0  0  0  0  0  0  0  0  0  0  0
   17.7270  -21.8680    0.2530 C   0  0  0  0  0  0  0  0  0  0  0
   22.3870  -23.5500   -0.3450 N   0  0  0  0  0  0  0  0  0  0  0
   23.4730  -24.0130   -1.1480 C   0  0  0  0  0  0  0  0  0  0  0
   23.7430  -22.9930   -2.2670 C   0  0  0  0  0  0  0  0  0  0  0
   23.9000  -21.6910   -1.6940 N   0  0  0  0  0  0  0  0  0  0  0
   22.7970  -21.2360   -0.9000 C   0  0  0  0  0  0  0  0  0  0  0
   22.5210  -22.2480    0.2240 C   0  0  0  0  0  0  0  0  0  0  0
   25.0210  -20.9280   -1.8670 C   0  0  0  0  0  0  0  0  0  0  0
   25.1030  -19.7980   -1.3360 O   0  0  0  0  0  0  0  0  0  0  0
   26.1660  -21.3770   -2.6660 C   0  0  0  0  0  0  0  0  0  0  0
   14.0520  -18.6460    0.5050 C   0  0  0  0  0  0  0  0  0  0  0
   13.1410  -24.0110    0.7620 H   0  0  0  0  0  0  0  0  0  0  0
   13.3120  -26.4280    0.8090 H   0  0  0  0  0  0  0  0  0  0  0
   17.6870  -27.3530    0.3610 H   0  0  0  0  0  0  0  0  0  0  0
   18.7450  -25.6590   -1.9460 H   0  0  0  0  0  0  0  0  0  0  0
   20.7940  -24.4150   -2.2400 H   0  0  0  0  0  0  0  0  0  0  0
   21.3600  -24.3590    1.9270 H   0  0  0  0  0  0  0  0  0  0  0
   19.3090  -25.6010    2.2230 H   0  0  0  0  0  0  0  0  0  0  0
   18.3660  -20.9880    0.1740 H   0  0  0  0  0  0  0  0  0  0  0
   18.0200  -22.4390    1.1340 H   0  0  0  0  0  0  0  0  0  0  0
   17.8600  -22.4810   -0.6390 H   0  0  0  0  0  0  0  0  0  0  0
   23.2690  -24.9890   -1.5940 H   0  0  0  0  0  0  0  0  0  0  0
   24.3640  -24.0980   -0.5240 H   0  0  0  0  0  0  0  0  0  0  0
   24.6170  -23.3220   -2.8300 H   0  0  0  0  0  0  0  0  0  0  0
   22.8870  -22.9790   -2.9440 H   0  0  0  0  0  0  0  0  0  0  0
   22.9760  -20.2570   -0.4510 H   0  0  0  0  0  0  0  0  0  0  0
   21.9120  -21.1640   -1.5340 H   0  0  0  0  0  0  0  0  0  0  0
   21.6220  -21.9390    0.7620 H   0  0  0  0  0  0  0  0  0  0  0
   23.3620  -22.2460    0.9200 H   0  0  0  0  0  0  0  0  0  0  0
   26.9390  -20.6080   -2.6760 H   0  0  0  0  0  0  0  0  0  0  0
   26.5780  -22.2890   -2.2340 H   0  0  0  0  0  0  0  0  0  0  0
   25.8450  -21.5690   -3.6900 H   0  0  0  0  0  0  0  0  0  0  0
   14.8200  -17.8780    0.4140 H   0  0  0  0  0  0  0  0  0  0  0
   13.3540  -18.5580   -0.3280 H   0  0  0  0  0  0  0  0  0  0  0
   13.5140  -18.5100    1.4430 H   0  0  0  0  0  0  0  0  0  0  0
  1  2  1  0  0  0  0
  1  6  2  0  0  0  0
  1 30  1  0  0  0  0
  2  3  2  0  0  0  0
  2 31  1  0  0  0  0
  3  4  1  0  0  0  0
  4  5  2  0  0  0  0
  4  7  1  0  0  0  0
  5  6  1  0  0  0  0
  6 14  1  0  0  0  0
  7  8  1  0  0  0  0
  7 32  1  0  0  0  0
  8  9  2  0  0  0  0
  8 13  1  0  0  0  0
  9 10  1  0  0  0  0
  9 33  1  0  0  0  0
 10 11  2  0  0  0  0
 10 34  1  0  0  0  0
 11 12  1  0  0  0  0
 11 20  1  0  0  0  0
 12 13  2  0  0  0  0
 12 35  1  0  0  0  0
 13 36  1  0  0  0  0
 14 15  1  0  0  0  0
 14 18  2  0  0  0  0
 15 16  1  0  0  0  0
 16 17  2  0  0  0  0
 16 29  1  0  0  0  0
 17 18  1  0  0  0  0
 18 19  1  0  0  0  0
 19 37  1  0  0  0  0
 19 38  1  0  0  0  0
 19 39  1  0  0  0  0
 20 21  1  0  0  0  0
 20 25  1  0  0  0  0
 21 22  1  0  0  0  0
 21 40  1  0  0  0  0
 21 41  1  0  0  0  0
 22 23  1  0  0  0  0
 22 42  1  0  0  0  0
 22 43  1  0  0  0  0
 23 24  1  0  0  0  0
 23 26  1  0  0  0  0
 24 25  1  0  0  0  0
 24 44  1  0  0  0  0
 24 45  1  0  0  0  0
 25 46  1  0  0  0  0
 25 47  1  0  0  0  0
 26 27  2  0  0  0  0
 26 28  1  0  0  0  0
 28 48  1  0  0  0  0
 28 49  1  0  0  0  0
 28 50  1  0  0  0  0
 29 51  1  0  0  0  0
 29 52  1  0  0  0  0
 29 53  1  0  0  0  0
M  END
> <From>
www.bindingDB.org

> <BindingDB Reactant_set_id>
50579967

> <Ligand InChI>
InChI=1S/C21H24N6OS/c1-14-20(29-15(2)23-14)19-8-9-22-21(25-19)24-17-4-6-18(7-5-17)27-12-10-26(11-13-27)16(3)28/h4-9H,10-13H2,1-3H3,(H,22,24,25)

> <Ligand InChI Key>
WMIWANZLOJYLPU-UHFFFAOYSA-N

> <BindingDB MonomerID>
50319627

> <BindingDB Ligand Name>
1-(4-(4-(4-(2,4-Dimethylthiazol-5-yl)pyrimidin-2-ylamino)phenyl)piperazin-1-yl)ethanone::CHEMBL1083786

> <Target Name Assigned by Curator or DataSource>
Cyclin-dependent kinase 2

> <Target Source Organism According to Curator or DataSource>
Homo sapiens

> <Ki (nM)>
 432

> <IC50 (nM)>


> <Kd (nM)>


> <EC50 (nM)>


> <kon (M-1-s-1)>


> <koff (s-1)>


> <pH>


> <Temp C>


> <Curation/DataSource>
ChEMBL

> <Article DOI>
10.1021/jm901913s

> <PMID>
20462263

> <PubChem AID>


> <Patent Number>


> <Authors>
Wang, S; Midgley, CA; Scaerou, F; Grabarek, JB; Griffiths, G; Jackson, W; Kontopidis, G; McClue, SJ; McInnes, C; Meades, C; Mezna, M; Plater, A; Stuart, I; Thomas, MP; Wood, G; Clarke, RG; Blake, DG; Zheleva, DI; Lane, DP; Jackson, RC; Glover, DM; Fischer, PM

> <Institution>
Cyclacel Ltd

> <Link to Ligand in BindingDB>
http://www.bindingdb.org/bind/chemsearch/marvin/MolStructure.jsp?monomerid=50319627

> <Link to Ligand-Target Pair in BindingDB>
http://www.bindingdb.org/jsp/dbsearch/PrimarySearch_ki.jsp?energyterm=kJ/mole&tag=pol&polymerid=796&target=Cyclin-dependent+kinase+2&column=ki&startPg=0&Increment=50&submit=Search

> <Link to Ligand-Target Pair in BindingDB>
http://www.bindingdb.org/jsp/dbsearch/PrimarySearch_ki.jsp?energyterm=kJ/mole&tag=r21&monomerid=50319627&enzyme=Cyclin-dependent+kinase+2&column=ki&startPg=0&Increment=50&submit=Search

> <Ligand HET ID in PDB>


> <PDB ID(s) for Ligand-Target Complex>


> <PubChem CID>
10024433

> <PubChem SID>
104153988

> <ChEBI ID of Ligand>


> <ChEMBL ID of Ligand>
CHEMBL1083786

> <DrugBank ID of Ligand>


> <IUPHAR_GRAC ID of Ligand>


> <KEGG ID of Ligand>


> <ZINC ID of Ligand>
ZINC34105115

> <Number of Protein Chains in Target (bigger than 1 implies a multichain complex)>
1

> <BindingDB Target Chain Sequence>
MENFQKVEKIGEGTYGVVYKARNKLTGEVVALKKIRLDTETEGVPSTAIREISLLKELNHPNIVKLLDVIHTENKLYLVFEFLHQDLKKFMDASALTGIPLPLIKSYLFQLLQGLAFCHSHRVLHRDLKPQNLLINTEGAIKLADFGLARAFGVPVRTYTHEVVTLWYRAPEILLGCKYYSTAVDIWSLGCIFAEMVTRRALFPGDSEIDQLFRIFRTLGTPDEVVWPGVTSMPDYKPSFPKWARQDFSKVVPPLDEDGRSLLSQMLHYDPNKRISAKAALAHPFFQDVTKPVPHLRL

> <PDB ID(s) of Target Chain>
1CKP,1DI8,1DM2,1E1V,1E1X,1E9H,1F5Q,1FIN,1FQ1,1FVT,1FVV,1G5S,1GIH,1GY3,1GZ8,1H00,1H01,1H07,1H08,1H0V,1H0W,1H1P,1H1Q,1H1R,1H1S,1H24,1H25,1H26,1H27,1H28,1HCK,1HCL,1JST,1JSU,1JSV,1JVP,1KE5,1KE6,1KE7,1KE8,1KE9,1OGU,1OI9,1OIQ,1OIR,1OIU,1OIY,1OKV,1OKW,1OL1,1OL2,1P2A,1P5E,1PF8,1PKD,1PW2,1PXI,1PXJ,1PXK,1PXL,1PXM,1PXN,1PXO,1PXP,1PYE,1QMZ,1R78,1URC,1URW,1V1K,1VYW,1VYZ,1W0X,1W8C,1W98,1WCC,1Y8Y,1Y91,1YKR,2A0C,2A4L,2B52,2B53,2B54,2B55,2BHE,2BHH,2BKZ,2BPM,2BTR,2BTS,2C4G,2C5N,2C5O,2C5V,2C5X,2C5Y,2C68,2C69,2C6I,2C6K,2C6L,2C6M,2C6O,2C6T,2CCH,2CCI,2CJM,2CLX,2DUV,2EXM,2FVD,2G9X,2I40,2J9M,2JGZ,2R3F,2R3G,2R3H,2R3I,2R3J,2R3K,2R3L,2R3M,2R3N,2R3O,2R3P,2R3Q,2R3R,2R64,2UUE,2UZB,2UZD,2UZE,2UZL,2UZN,2UZO,2V0D,2V22,2VTA,2VTH,2VTI,2VTJ,2VTL,2VTM,2VTN,2VTO,2VTP,2VTQ,2VTR,2VTS,2VTT,2VU3,2VV9,2W05,2W06,2W17,2W1H,2WEV,2WFY,2WHB,2WIH,2WIP,2WMA,2WMB,2WPA,2WXV,2X1N,2XMY,2XNB,3BHT,3BHU,3BHV,3DDP,3DDQ,3DOG,3EID,3EJ1,3EOC,3EZR,3EZV,3F5X,3FZ1,3IG7,3IGG,3LE6,3LFN,3LFQ,3LFS,3MY5,3NS9,3PJ8,3PXF,3PXQ,3PXR,3PXY,3PXZ,3PY0,3PY1,3QHR,3QHW,3QL8,3QQF,3QQG,3QQH,3QQJ,3QQK,3QQL,3QRT,3QRU,3QTQ,3QTR,3QTS,3QTU,3QTW,3QTX,3QTZ,3QU0,3QWJ,3QWK,3QX2,3QX4,3QXO,3QXP,3QZF,3QZG,3QZH,3QZI,3R1Q,3R1S,3R1Y,3R28,3R6X,3R71,3R73,3R7E,3R7I,3R7U,3R7V,3R7Y,3R83,3R8L,3R8M,3R8P,3R8U,3R8V,3R8Z,3R9D,3R9H,3R9N,3R9O,3RAH,3RAI,3RAK,3RAL,3RJC,3RK5,3RK7,3RK9,3RKB,3RM6,3RM7,3RMF,3RNI,3ROY,3RPO,3RPR,3RPV,3RPY,3RZB,3S00,3S0O,3S1H,3S2P,3SQQ,3SW4,3SW7,3TI1,3TIY,3TIZ,3TNW,3ULI,3UNJ,3UNK,3WBL,4ACM,4BCK,4BCM,4BCN,4BCO,4BCP,4BCQ,4BGH,4BZD,4CFM,4CFN,4CFU,4CFV,4CFW,4CFX,4D1X,4D1Z,4EK3,4EK4,4EK5,4EK6,4EK8,4EOQ,4EOR,4EOS,4ERW,4EZ3,4EZ7,4FKG,4FKI,4FKJ,4FKL,4FKO,4FKP,4FKQ,4FKR,4FKS,4FKT,4FKU,4FKV,4FKW,4FX3,4GCJ,4I3Z,4II5,4KD1,4LYN,4NJ3,4RJ3,5A14,5AND,5ANE,5ANG,5ANI,5ANJ,5ANK,5ANO,5CYI,5D1J,5FP5,5FP6,5IEV,5IEX,5IEY,5IF1,5JQ5,5JQ8,5K4J,5L2W,5LMK,5MHQ,5NEV,5OO0,5OSJ,5UQ1,5UQ2,5UQ3,6ATH,6GUB,6GUC,6GUE,6GUF,6GUH,6GUK,6GVA,6INL,6JGM,6OQI,6P3W,6Q3B,6Q3C,6Q3F,6Q48,6Q49,6Q4A,6Q4B,6Q4C,6Q4D,6Q4E,6Q4F,6Q4H,6Q4J,6Q4K,6RIJ,6SG4,7ACK,7B5L,7B5R,7B7S,7E34,7KJS,7M2F,7NVQ

> <UniProt (SwissProt) Recommended Name of Target Chain>
Cyclin-dependent kinase 2

> <UniProt (SwissProt) Entry Name of Target Chain>
CDK2_HUMAN

> <UniProt (SwissProt) Primary ID of Target Chain>
P24941

> <UniProt (SwissProt) Secondary ID(s) of Target Chain>
A8K7C6,O75100

> <UniProt (SwissProt) Alternative ID(s) of Target Chain>


> <UniProt (TrEMBL) Submitted Name of Target Chain>


> <UniProt (TrEMBL) Entry Name of Target Chain>


> <UniProt (TrEMBL) Primary ID of Target Chain>
A0A024RB77

> <UniProt (TrEMBL) Secondary ID(s) of Target Chain>


> <UniProt (TrEMBL) Alternative ID(s) of Target Chain>


$$$$
BindingDB_50319621_mol_1

Vconf v2.0 Academic SN VC001-00000579
 51 53  0  0  0  0  0  0  0  0999 V2000
   -4.4370  -10.9130    0.6990 C   0  0  0  0  0  0  0  0  0  0  0
   -4.3440  -12.3090    0.7650 C   0  0  0  0  0  0  0  0  0  0  0
   -3.1390  -12.9160    0.6500 N   0  0  0  0  0  0  0  0  0  0  0
   -2.0010  -12.2090    0.4630 C   0  0  0  0  0  0  0  0  0  0  0
   -2.0830  -10.8550    0.3970 N   0  0  0  0  0  0  0  0  0  0  0
   -3.2530  -10.1760    0.5090 C   0  0  0  0  0  0  0  0  0  0  0
   -0.8330  -12.8870    0.3720 N   0  0  0  0  0  0  0  0  0  0  0
    0.3870  -12.3250    0.1950 C   0  0  0  0  0  0  0  0  0  0  0
    0.6520  -11.4240   -0.8520 C   0  0  0  0  0  0  0  0  0  0  0
    1.9310  -10.8680   -1.0120 C   0  0  0  0  0  0  0  0  0  0  0
    2.9630  -11.2000   -0.1060 C   0  0  0  0  0  0  0  0  0  0  0
    2.7170  -12.1360    0.9280 C   0  0  0  0  0  0  0  0  0  0  0
    1.4310  -12.6890    1.0630 C   0  0  0  0  0  0  0  0  0  0  0
   -3.2850   -8.7670    0.4490 C   0  0  0  0  0  0  0  0  0  0  0
   -4.7710   -7.8920    0.6260 S   0  0  0  0  0  0  0  0  0  0  0
   -3.8560   -6.4350    0.4480 C   0  0  0  0  0  0  0  0  0  0  0
   -2.5410   -6.6150    0.2670 N   0  0  0  0  0  0  0  0  0  0  0
   -2.1950   -7.9090    0.2620 C   0  0  0  0  0  0  0  0  0  0  0
   -0.7960   -8.3060    0.0650 C   0  0  0  0  0  0  0  0  0  0  0
   -4.4420   -5.2220    0.4920 N   0  0  0  0  0  0  0  0  0  0  0
    4.1930  -10.6300   -0.2370 O   0  0  0  0  0  0  0  0  0  0  0
    4.3330   -9.2240   -0.0150 C   0  0  0  0  0  0  0  0  0  0  0
    3.6330  -12.5650    1.8490 O   0  0  0  0  0  0  0  0  0  0  0
    5.0000  -12.1510    1.8810 C   0  0  0  0  0  0  0  0  0  0  0
    2.1150  -10.0030   -2.0460 O   0  0  0  0  0  0  0  0  0  0  0
    3.0380  -10.3420   -3.0840 C   0  0  0  0  0  0  0  0  0  0  0
   -3.7080   -4.0170    0.3440 C   0  0  0  0  0  0  0  0  0  0  0
   -4.6590   -2.8200    0.4470 C   0  0  0  0  0  0  0  0  0  0  0
   -5.3460  -10.4570    0.7890 H   0  0  0  0  0  0  0  0  0  0  0
   -5.1840  -12.8710    0.9040 H   0  0  0  0  0  0  0  0  0  0  0
   -0.8710  -13.8480    0.4910 H   0  0  0  0  0  0  0  0  0  0  0
   -0.0900  -11.1710   -1.5060 H   0  0  0  0  0  0  0  0  0  0  0
    1.2520  -13.3580    1.8140 H   0  0  0  0  0  0  0  0  0  0  0
   -0.1680   -7.4210   -0.0350 H   0  0  0  0  0  0  0  0  0  0  0
   -0.4500   -8.8890    0.9190 H   0  0  0  0  0  0  0  0  0  0  0
   -0.7120   -8.9020   -0.8440 H   0  0  0  0  0  0  0  0  0  0  0
   -5.4010   -5.1740    0.6280 H   0  0  0  0  0  0  0  0  0  0  0
    5.3850   -8.9590   -0.1080 H   0  0  0  0  0  0  0  0  0  0  0
    3.7610   -8.6550   -0.7480 H   0  0  0  0  0  0  0  0  0  0  0
    3.9920   -8.9660    0.9900 H   0  0  0  0  0  0  0  0  0  0  0
    5.5060  -12.6720    2.6930 H   0  0  0  0  0  0  0  0  0  0  0
    5.4940  -12.4020    0.9410 H   0  0  0  0  0  0  0  0  0  0  0
    5.0660  -11.0770    2.0600 H   0  0  0  0  0  0  0  0  0  0  0
    3.0190   -9.5570   -3.8400 H   0  0  0  0  0  0  0  0  0  0  0
    4.0520  -10.4260   -2.6930 H   0  0  0  0  0  0  0  0  0  0  0
    2.7500  -11.2860   -3.5500 H   0  0  0  0  0  0  0  0  0  0  0
   -2.9550   -3.9430    1.1300 H   0  0  0  0  0  0  0  0  0  0  0
   -3.2160   -3.9990   -0.6300 H   0  0  0  0  0  0  0  0  0  0  0
   -4.0910   -1.8960    0.3310 H   0  0  0  0  0  0  0  0  0  0  0
   -5.4130   -2.8780   -0.3380 H   0  0  0  0  0  0  0  0  0  0  0
   -5.1480   -2.8190    1.4220 H   0  0  0  0  0  0  0  0  0  0  0
  1  2  2  0  0  0  0
  1  6  1  0  0  0  0
  1 29  1  0  0  0  0
  2  3  1  0  0  0  0
  2 30  1  0  0  0  0
  3  4  2  0  0  0  0
  4  5  1  0  0  0  0
  4  7  1  0  0  0  0
  5  6  2  0  0  0  0
  6 14  1  0  0  0  0
  7  8  1  0  0  0  0
  7 31  1  0  0  0  0
  8  9  2  0  0  0  0
  8 13  1  0  0  0  0
  9 10  1  0  0  0  0
  9 32  1  0  0  0  0
 10 11  2  0  0  0  0
 10 25  1  0  0  0  0
 11 12  1  0  0  0  0
 11 21  1  0  0  0  0
 12 13  2  0  0  0  0
 12 23  1  0  0  0  0
 13 33  1  0  0  0  0
 14 15  1  0  0  0  0
 14 18  2  0  0  0  0
 15 16  1  0  0  0  0
 16 17  2  0  0  0  0
 16 20  1  0  0  0  0
 17 18  1  0  0  0  0
 18 19  1  0  0  0  0
 19 34  1  0  0  0  0
 19 35  1  0  0  0  0
 19 36  1  0  0  0  0
 20 27  1  0  0  0  0
 20 37  1  0  0  0  0
 21 22  1  0  0  0  0
 22 38  1  0  0  0  0
 22 39  1  0  0  0  0
 22 40  1  0  0  0  0
 23 24  1  0  0  0  0
 24 41  1  0  0  0  0
 24 42  1  0  0  0  0
 24 43  1  0  0  0  0
 25 26  1  0  0  0  0
 26 44  1  0  0  0  0
 26 45  1  0  0  0  0
 26 46  1  0  0  0  0
 27 28  1  0  0  0  0
 27 47  1  0  0  0  0
 27 48  1  0  0  0  0
 28 49  1  0  0  0  0
 28 50  1  0  0  0  0
 28 51  1  0  0  0  0
M  END
> <From>
www.bindingDB.org

> <BindingDB Reactant_set_id>
50579847

> <Ligand InChI>
InChI=1S/C19H23N5O3S/c1-6-20-19-22-11(2)17(28-19)13-7-8-21-18(24-13)23-12-9-14(25-3)16(27-5)15(10-12)26-4/h7-10H,6H2,1-5H3,(H,20,22)(H,21,23,24)

> <Ligand InChI Key>
LNGVCHKMQJKHDR-UHFFFAOYSA-N

> <BindingDB MonomerID>
50319621

> <BindingDB Ligand Name>
CHEMBL1086088::N-Ethyl-4-methyl-5-(2-(3,4,5-trimethoxyphenylamino)pyrimidin-4-yl)thiazol-2-amine

> <Target Name Assigned by Curator or DataSource>
Cyclin-dependent kinase 2

> <Target Source Organism According to Curator or DataSource>
Homo sapiens

> <Ki (nM)>
 463

> <IC50 (nM)>


> <Kd (nM)>


> <EC50 (nM)>


> <kon (M-1-s-1)>


> <koff (s-1)>


> <pH>


> <Temp C>


> <Curation/DataSource>
ChEMBL

> <Article DOI>
10.1021/jm901913s

> <PMID>
20462263

> <PubChem AID>


> <Patent Number>


> <Authors>
Wang, S; Midgley, CA; Scaerou, F; Grabarek, JB; Griffiths, G; Jackson, W; Kontopidis, G; McClue, SJ; McInnes, C; Meades, C; Mezna, M; Plater, A; Stuart, I; Thomas, MP; Wood, G; Clarke, RG; Blake, DG; Zheleva, DI; Lane, DP; Jackson, RC; Glover, DM; Fischer, PM

> <Institution>
Cyclacel Ltd

> <Link to Ligand in BindingDB>
http://www.bindingdb.org/bind/chemsearch/marvin/MolStructure.jsp?monomerid=50319621

> <Link to Ligand-Target Pair in BindingDB>
http://www.bindingdb.org/jsp/dbsearch/PrimarySearch_ki.jsp?energyterm=kJ/mole&tag=pol&polymerid=796&target=Cyclin-dependent+kinase+2&column=ki&startPg=0&Increment=50&submit=Search

> <Link to Ligand-Target Pair in BindingDB>
http://www.bindingdb.org/jsp/dbsearch/PrimarySearch_ki.jsp?energyterm=kJ/mole&tag=r21&monomerid=50319621&enzyme=Cyclin-dependent+kinase+2&column=ki&startPg=0&Increment=50&submit=Search

> <Ligand HET ID in PDB>


> <PDB ID(s) for Ligand-Target Complex>


> <PubChem CID>
11647020

> <PubChem SID>
104153982

> <ChEBI ID of Ligand>


> <ChEMBL ID of Ligand>
CHEMBL1086088

> <DrugBank ID of Ligand>


> <IUPHAR_GRAC ID of Ligand>


> <KEGG ID of Ligand>


> <ZINC ID of Ligand>
ZINC35997162

> <Number of Protein Chains in Target (bigger than 1 implies a multichain complex)>
1

> <BindingDB Target Chain Sequence>
MENFQKVEKIGEGTYGVVYKARNKLTGEVVALKKIRLDTETEGVPSTAIREISLLKELNHPNIVKLLDVIHTENKLYLVFEFLHQDLKKFMDASALTGIPLPLIKSYLFQLLQGLAFCHSHRVLHRDLKPQNLLINTEGAIKLADFGLARAFGVPVRTYTHEVVTLWYRAPEILLGCKYYSTAVDIWSLGCIFAEMVTRRALFPGDSEIDQLFRIFRTLGTPDEVVWPGVTSMPDYKPSFPKWARQDFSKVVPPLDEDGRSLLSQMLHYDPNKRISAKAALAHPFFQDVTKPVPHLRL

> <PDB ID(s) of Target Chain>
1CKP,1DI8,1DM2,1E1V,1E1X,1E9H,1F5Q,1FIN,1FQ1,1FVT,1FVV,1G5S,1GIH,1GY3,1GZ8,1H00,1H01,1H07,1H08,1H0V,1H0W,1H1P,1H1Q,1H1R,1H1S,1H24,1H25,1H26,1H27,1H28,1HCK,1HCL,1JST,1JSU,1JSV,1JVP,1KE5,1KE6,1KE7,1KE8,1KE9,1OGU,1OI9,1OIQ,1OIR,1OIU,1OIY,1OKV,1OKW,1OL1,1OL2,1P2A,1P5E,1PF8,1PKD,1PW2,1PXI,1PXJ,1PXK,1PXL,1PXM,1PXN,1PXO,1PXP,1PYE,1QMZ,1R78,1URC,1URW,1V1K,1VYW,1VYZ,1W0X,1W8C,1W98,1WCC,1Y8Y,1Y91,1YKR,2A0C,2A4L,2B52,2B53,2B54,2B55,2BHE,2BHH,2BKZ,2BPM,2BTR,2BTS,2C4G,2C5N,2C5O,2C5V,2C5X,2C5Y,2C68,2C69,2C6I,2C6K,2C6L,2C6M,2C6O,2C6T,2CCH,2CCI,2CJM,2CLX,2DUV,2EXM,2FVD,2G9X,2I40,2J9M,2JGZ,2R3F,2R3G,2R3H,2R3I,2R3J,2R3K,2R3L,2R3M,2R3N,2R3O,2R3P,2R3Q,2R3R,2R64,2UUE,2UZB,2UZD,2UZE,2UZL,2UZN,2UZO,2V0D,2V22,2VTA,2VTH,2VTI,2VTJ,2VTL,2VTM,2VTN,2VTO,2VTP,2VTQ,2VTR,2VTS,2VTT,2VU3,2VV9,2W05,2W06,2W17,2W1H,2WEV,2WFY,2WHB,2WIH,2WIP,2WMA,2WMB,2WPA,2WXV,2X1N,2XMY,2XNB,3BHT,3BHU,3BHV,3DDP,3DDQ,3DOG,3EID,3EJ1,3EOC,3EZR,3EZV,3F5X,3FZ1,3IG7,3IGG,3LE6,3LFN,3LFQ,3LFS,3MY5,3NS9,3PJ8,3PXF,3PXQ,3PXR,3PXY,3PXZ,3PY0,3PY1,3QHR,3QHW,3QL8,3QQF,3QQG,3QQH,3QQJ,3QQK,3QQL,3QRT,3QRU,3QTQ,3QTR,3QTS,3QTU,3QTW,3QTX,3QTZ,3QU0,3QWJ,3QWK,3QX2,3QX4,3QXO,3QXP,3QZF,3QZG,3QZH,3QZI,3R1Q,3R1S,3R1Y,3R28,3R6X,3R71,3R73,3R7E,3R7I,3R7U,3R7V,3R7Y,3R83,3R8L,3R8M,3R8P,3R8U,3R8V,3R8Z,3R9D,3R9H,3R9N,3R9O,3RAH,3RAI,3RAK,3RAL,3RJC,3RK5,3RK7,3RK9,3RKB,3RM6,3RM7,3RMF,3RNI,3ROY,3RPO,3RPR,3RPV,3RPY,3RZB,3S00,3S0O,3S1H,3S2P,3SQQ,3SW4,3SW7,3TI1,3TIY,3TIZ,3TNW,3ULI,3UNJ,3UNK,3WBL,4ACM,4BCK,4BCM,4BCN,4BCO,4BCP,4BCQ,4BGH,4BZD,4CFM,4CFN,4CFU,4CFV,4CFW,4CFX,4D1X,4D1Z,4EK3,4EK4,4EK5,4EK6,4EK8,4EOQ,4EOR,4EOS,4ERW,4EZ3,4EZ7,4FKG,4FKI,4FKJ,4FKL,4FKO,4FKP,4FKQ,4FKR,4FKS,4FKT,4FKU,4FKV,4FKW,4FX3,4GCJ,4I3Z,4II5,4KD1,4LYN,4NJ3,4RJ3,5A14,5AND,5ANE,5ANG,5ANI,5ANJ,5ANK,5ANO,5CYI,5D1J,5FP5,5FP6,5IEV,5IEX,5IEY,5IF1,5JQ5,5JQ8,5K4J,5L2W,5LMK,5MHQ,5NEV,5OO0,5OSJ,5UQ1,5UQ2,5UQ3,6ATH,6GUB,6GUC,6GUE,6GUF,6GUH,6GUK,6GVA,6INL,6JGM,6OQI,6P3W,6Q3B,6Q3C,6Q3F,6Q48,6Q49,6Q4A,6Q4B,6Q4C,6Q4D,6Q4E,6Q4F,6Q4H,6Q4J,6Q4K,6RIJ,6SG4,7ACK,7B5L,7B5R,7B7S,7E34,7KJS,7M2F,7NVQ

> <UniProt (SwissProt) Recommended Name of Target Chain>
Cyclin-dependent kinase 2

> <UniProt (SwissProt) Entry Name of Target Chain>
CDK2_HUMAN

> <UniProt (SwissProt) Primary ID of Target Chain>
P24941

> <UniProt (SwissProt) Secondary ID(s) of Target Chain>
A8K7C6,O75100

> <UniProt (SwissProt) Alternative ID(s) of Target Chain>


> <UniProt (TrEMBL) Submitted Name of Target Chain>


> <UniProt (TrEMBL) Entry Name of Target Chain>


> <UniProt (TrEMBL) Primary ID of Target Chain>
A0A024RB77

> <UniProt (TrEMBL) Secondary ID(s) of Target Chain>


> <UniProt (TrEMBL) Alternative ID(s) of Target Chain>


$$$$
ttt_mol_1

Vconf v2.1
 55 58  0  0  0  0  0  0  0  0999 V2000
    1.9300    3.0600    0.0040 N   0  0  0  0  0  0  0  0  0  0  0
    1.1890    1.9450    0.0270 C   0  0  0  0  0  0  0  0  0  0  0
    1.9510    0.7840    0.2050 C   0  0  0  0  0  0  0  0  0  0  0
    3.6410    1.1390    0.3570 S   0  0  0  0  0  0  0  0  0  0  0
    3.2350    2.8100    0.1630 C   0  0  0  0  0  0  0  0  0  0  0
   -0.2690    2.0120   -0.1180 C   0  0  0  0  0  0  0  0  0  0  0
    4.1450    3.8000    0.1730 N   0  0  0  0  0  0  0  0  0  0  0
    1.4730   -0.5420    0.2680 C   0  0  0  0  0  0  0  0  0  0  0
    2.3580   -1.6120    0.4950 C   0  0  0  0  0  0  0  0  0  0  0
    1.8280   -2.9080    0.5590 C   0  0  0  0  0  0  0  0  0  0  0
    0.4980   -3.1060    0.3990 N   0  0  0  0  0  0  0  0  0  0  0
   -0.3520   -2.0790    0.1710 C   0  0  0  0  0  0  0  0  0  0  0
    0.1530   -0.8200    0.1140 N   0  0  0  0  0  0  0  0  0  0  0
   -1.6690   -2.3590    0.0200 N   0  0  0  0  0  0  0  0  0  0  0
   -2.6430   -1.4510   -0.2380 C   0  0  0  0  0  0  0  0  0  0  0
   -4.8490   -0.5590    0.2870 C   0  0  0  0  0  0  0  0  0  0  0
   -3.8200   -1.4840    0.5290 C   0  0  0  0  0  0  0  0  0  0  0
   -2.5290   -0.5040   -1.2760 C   0  0  0  0  0  0  0  0  0  0  0
   -3.5520    0.4290   -1.5240 C   0  0  0  0  0  0  0  0  0  0  0
   -4.7210    0.4090   -0.7300 C   0  0  0  0  0  0  0  0  0  0  0
   -3.3470    1.6000   -2.7950 S   0  0  0  0  0  0  0  0  0  0  0
   -4.5320    1.3190   -3.8180 O   0  0  0  0  0  0  0  0  0  0  0
   -3.1910    2.9940   -2.0440 O   0  0  0  0  0  0  0  0  0  0  0
   -1.9400    1.2900   -3.6800 N   0  0  0  0  0  0  0  0  0  0  0
    5.5280    3.5500    0.3510 C   0  0  0  0  0  0  0  0  0  0  0
   -1.8800    0.1810   -4.5640 C   0  0  0  0  0  0  0  0  0  0  0
   -1.5990    0.6970   -5.9830 C   0  0  0  0  0  0  0  0  0  0  0
   -0.4570    1.5550   -5.9580 O   0  0  0  0  0  0  0  0  0  0  0
   -0.5360    2.6660   -5.0640 C   0  0  0  0  0  0  0  0  0  0  0
   -0.8200    2.1630   -3.6400 C   0  0  0  0  0  0  0  0  0  0  0
   -5.8230    1.3690   -0.9150 C   0  0  0  0  0  0  0  0  0  0  0
   -0.5720    1.4570   -1.0030 H   0  0  0  0  0  0  0  0  0  0  0
   -0.7500    1.5850    0.7620 H   0  0  0  0  0  0  0  0  0  0  0
   -0.5870    3.0490   -0.2270 H   0  0  0  0  0  0  0  0  0  0  0
    3.8400    4.7130    0.0580 H   0  0  0  0  0  0  0  0  0  0  0
    3.3600   -1.4650    0.6170 H   0  0  0  0  0  0  0  0  0  0  0
    2.4430   -3.7030    0.7270 H   0  0  0  0  0  0  0  0  0  0  0
   -1.9400   -3.2810    0.1440 H   0  0  0  0  0  0  0  0  0  0  0
   -5.6930   -0.5870    0.8610 H   0  0  0  0  0  0  0  0  0  0  0
   -3.9270   -2.1740    1.2730 H   0  0  0  0  0  0  0  0  0  0  0
   -1.6860   -0.4890   -1.8490 H   0  0  0  0  0  0  0  0  0  0  0
    6.0660    4.4980    0.3280 H   0  0  0  0  0  0  0  0  0  0  0
    5.7010    3.0680    1.3150 H   0  0  0  0  0  0  0  0  0  0  0
    5.9020    2.9090   -0.4490 H   0  0  0  0  0  0  0  0  0  0  0
   -2.8190   -0.3730   -4.5520 H   0  0  0  0  0  0  0  0  0  0  0
   -1.0700   -0.4820   -4.2560 H   0  0  0  0  0  0  0  0  0  0  0
   -1.4090   -0.1450   -6.6480 H   0  0  0  0  0  0  0  0  0  0  0
   -2.4660    1.2520   -6.3470 H   0  0  0  0  0  0  0  0  0  0  0
   -1.3390    3.3330   -5.3810 H   0  0  0  0  0  0  0  0  0  0  0
    0.4080    3.2110   -5.0770 H   0  0  0  0  0  0  0  0  0  0  0
   -1.0050    3.0120   -2.9830 H   0  0  0  0  0  0  0  0  0  0  0
    0.0490    1.6140   -3.2760 H   0  0  0  0  0  0  0  0  0  0  0
   -5.6120    2.0880   -1.7050 H   0  0  0  0  0  0  0  0  0  0  0
   -6.7360    0.8300   -1.1730 H   0  0  0  0  0  0  0  0  0  0  0
   -5.9860    1.9180    0.0130 H   0  0  0  0  0  0  0  0  0  0  0
  1  2  1  0  0  0  0
  1  5  2  0  0  0  0
  2  3  2  0  0  0  0
  2  6  1  0  0  0  0
  3  4  1  0  0  0  0
  3  8  1  0  0  0  0
  4  5  1  0  0  0  0
  5  7  1  0  0  0  0
  6 32  1  0  0  0  0
  6 33  1  0  0  0  0
  6 34  1  0  0  0  0
  7 25  1  0  0  0  0
  7 35  1  0  0  0  0
  8  9  2  0  0  0  0
  8 13  1  0  0  0  0
  9 10  1  0  0  0  0
  9 36  1  0  0  0  0
 10 11  2  0  0  0  0
 10 37  1  0  0  0  0
 11 12  1  0  0  0  0
 12 13  2  0  0  0  0
 12 14  1  0  0  0  0
 14 15  1  0  0  0  0
 14 38  1  0  0  0  0
 15 17  2  0  0  0  0
 15 18  1  0  0  0  0
 16 17  1  0  0  0  0
 16 20  2  0  0  0  0
 16 39  1  0  0  0  0
 17 40  1  0  0  0  0
 18 19  2  0  0  0  0
 18 41  1  0  0  0  0
 19 20  1  0  0  0  0
 19 21  1  0  0  0  0
 20 31  1  0  0  0  0
 21 22  2  0  0  0  0
 21 23  2  0  0  0  0
 21 24  1  0  0  0  0
 24 26  1  0  0  0  0
 24 30  1  0  0  0  0
 25 42  1  0  0  0  0
 25 43  1  0  0  0  0
 25 44  1  0  0  0  0
 26 27  1  0  0  0  0
 26 45  1  0  0  0  0
 26 46  1  0  0  0  0
 27 28  1  0  0  0  0
 27 47  1  0  0  0  0
 27 48  1  0  0  0  0
 28 29  1  0  0  0  0
 29 30  1  0  0  0  0
 29 49  1  0  0  0  0
 29 50  1  0  0  0  0
 30 51  1  0  0  0  0
 30 52  1  0  0  0  0
 31 53  1  0  0  0  0
 31 54  1  0  0  0  0
 31 55  1  0  0  0  0
M  END
> <From>
www.bindingDB.org

> <BindingDB Reactant_set_id>
153786

> <Ligand InChI>
InChI=1S/C20H24N6O3S2/c1-13-4-5-15(12-17(13)31(27,28)26-8-10-29-11-9-26)24-19-22-7-6-16(25-19)18-14(2)23-20(21-3)30-18/h4-7,12H,8-11H2,1-3H3,(H,21,23)(H,22,24,25)

> <Ligand InChI Key>
NNMRZPOMVQNXMS-UHFFFAOYSA-N

> <BindingDB MonomerID>
81436

> <BindingDB Ligand Name>
CDK Inhibitor, 9

> <Target Name Assigned by Curator or DataSource>
Cyclin-dependent kinase 2

> <Target Source Organism According to Curator or DataSource>
Homo sapiens

> <Ki (nM)>
>500

> <IC50 (nM)>


> <Kd (nM)>


> <EC50 (nM)>


> <kon (M-1-s-1)>


> <koff (s-1)>


> <pH>


> <Temp C>


> <Curation/DataSource>
Curated from the literature by BindingDB

> <Article DOI>
10.1016/j.chembiol.2010.07.016

> <PMID>
21035734

> <PubChem AID>


> <Patent Number>


> <Authors>
Wang, S; Griffiths, G; Midgley, CA; Barnett, AL; Cooper, M; Grabarek, J; Ingram, L; Jackson, W; Kontopidis, G; McClue, SJ; McInnes, C; McLachlan, J; Meades, C; Mezna, M; Stuart, I; Thomas, MP; Zheleva, DI; Lane, DP; Jackson, RC; Glover, DM; Blake, DG; Fischer, PM

> <Institution>
Cyclacel Limited

> <Link to Ligand in BindingDB>
http://www.bindingdb.org/bind/chemsearch/marvin/MolStructure.jsp?monomerid=81436

> <Link to Ligand-Target Pair in BindingDB>
http://www.bindingdb.org/jsp/dbsearch/PrimarySearch_ki.jsp?energyterm=kJ/mole&tag=pol&polymerid=796&target=Cyclin-dependent+kinase+2&column=ki&startPg=0&Increment=50&submit=Search

> <Link to Ligand-Target Pair in BindingDB>
http://www.bindingdb.org/jsp/dbsearch/PrimarySearch_ki.jsp?energyterm=kJ/mole&tag=r21&monomerid=81436&enzyme=Cyclin-dependent+kinase+2&column=ki&startPg=0&Increment=50&submit=Search

> <Ligand HET ID in PDB>


> <PDB ID(s) for Ligand-Target Complex>


> <PubChem CID>
11510921

> <PubChem SID>
131342010

> <ChEBI ID of Ligand>


> <ChEMBL ID of Ligand>


> <DrugBank ID of Ligand>


> <IUPHAR_GRAC ID of Ligand>


> <KEGG ID of Ligand>


> <ZINC ID of Ligand>
ZINC43101526

> <Number of Protein Chains in Target (bigger than 1 implies a multichain complex)>
1

> <BindingDB Target Chain Sequence>
MENFQKVEKIGEGTYGVVYKARNKLTGEVVALKKIRLDTETEGVPSTAIREISLLKELNHPNIVKLLDVIHTENKLYLVFEFLHQDLKKFMDASALTGIPLPLIKSYLFQLLQGLAFCHSHRVLHRDLKPQNLLINTEGAIKLADFGLARAFGVPVRTYTHEVVTLWYRAPEILLGCKYYSTAVDIWSLGCIFAEMVTRRALFPGDSEIDQLFRIFRTLGTPDEVVWPGVTSMPDYKPSFPKWARQDFSKVVPPLDEDGRSLLSQMLHYDPNKRISAKAALAHPFFQDVTKPVPHLRL

> <PDB ID(s) of Target Chain>
1CKP,1DI8,1DM2,1E1V,1E1X,1E9H,1F5Q,1FIN,1FQ1,1FVT,1FVV,1G5S,1GIH,1GY3,1GZ8,1H00,1H01,1H07,1H08,1H0V,1H0W,1H1P,1H1Q,1H1R,1H1S,1H24,1H25,1H26,1H27,1H28,1HCK,1HCL,1JST,1JSU,1JSV,1JVP,1KE5,1KE6,1KE7,1KE8,1KE9,1OGU,1OI9,1OIQ,1OIR,1OIU,1OIY,1OKV,1OKW,1OL1,1OL2,1P2A,1P5E,1PF8,1PKD,1PW2,1PXI,1PXJ,1PXK,1PXL,1PXM,1PXN,1PXO,1PXP,1PYE,1QMZ,1R78,1URC,1URW,1V1K,1VYW,1VYZ,1W0X,1W8C,1W98,1WCC,1Y8Y,1Y91,1YKR,2A0C,2A4L,2B52,2B53,2B54,2B55,2BHE,2BHH,2BKZ,2BPM,2BTR,2BTS,2C4G,2C5N,2C5O,2C5V,2C5X,2C5Y,2C68,2C69,2C6I,2C6K,2C6L,2C6M,2C6O,2C6T,2CCH,2CCI,2CJM,2CLX,2DUV,2EXM,2FVD,2G9X,2I40,2J9M,2JGZ,2R3F,2R3G,2R3H,2R3I,2R3J,2R3K,2R3L,2R3M,2R3N,2R3O,2R3P,2R3Q,2R3R,2R64,2UUE,2UZB,2UZD,2UZE,2UZL,2UZN,2UZO,2V0D,2V22,2VTA,2VTH,2VTI,2VTJ,2VTL,2VTM,2VTN,2VTO,2VTP,2VTQ,2VTR,2VTS,2VTT,2VU3,2VV9,2W05,2W06,2W17,2W1H,2WEV,2WFY,2WHB,2WIH,2WIP,2WMA,2WMB,2WPA,2WXV,2X1N,2XMY,2XNB,3BHT,3BHU,3BHV,3DDP,3DDQ,3DOG,3EID,3EJ1,3EOC,3EZR,3EZV,3F5X,3FZ1,3IG7,3IGG,3LE6,3LFN,3LFQ,3LFS,3MY5,3NS9,3PJ8,3PXF,3PXQ,3PXR,3PXY,3PXZ,3PY0,3PY1,3QHR,3QHW,3QL8,3QQF,3QQG,3QQH,3QQJ,3QQK,3QQL,3QRT,3QRU,3QTQ,3QTR,3QTS,3QTU,3QTW,3QTX,3QTZ,3QU0,3QWJ,3QWK,3QX2,3QX4,3QXO,3QXP,3QZF,3QZG,3QZH,3QZI,3R1Q,3R1S,3R1Y,3R28,3R6X,3R71,3R73,3R7E,3R7I,3R7U,3R7V,3R7Y,3R83,3R8L,3R8M,3R8P,3R8U,3R8V,3R8Z,3R9D,3R9H,3R9N,3R9O,3RAH,3RAI,3RAK,3RAL,3RJC,3RK5,3RK7,3RK9,3RKB,3RM6,3RM7,3RMF,3RNI,3ROY,3RPO,3RPR,3RPV,3RPY,3RZB,3S00,3S0O,3S1H,3S2P,3SQQ,3SW4,3SW7,3TI1,3TIY,3TIZ,3TNW,3ULI,3UNJ,3UNK,3WBL,4ACM,4BCK,4BCM,4BCN,4BCO,4BCP,4BCQ,4BGH,4BZD,4CFM,4CFN,4CFU,4CFV,4CFW,4CFX,4D1X,4D1Z,4EK3,4EK4,4EK5,4EK6,4EK8,4EOQ,4EOR,4EOS,4ERW,4EZ3,4EZ7,4FKG,4FKI,4FKJ,4FKL,4FKO,4FKP,4FKQ,4FKR,4FKS,4FKT,4FKU,4FKV,4FKW,4FX3,4GCJ,4I3Z,4II5,4KD1,4LYN,4NJ3,4RJ3,5A14,5AND,5ANE,5ANG,5ANI,5ANJ,5ANK,5ANO,5CYI,5D1J,5FP5,5FP6,5IEV,5IEX,5IEY,5IF1,5JQ5,5JQ8,5K4J,5L2W,5LMK,5MHQ,5NEV,5OO0,5OSJ,5UQ1,5UQ2,5UQ3,6ATH,6GUB,6GUC,6GUE,6GUF,6GUH,6GUK,6GVA,6INL,6JGM,6OQI,6P3W,6Q3B,6Q3C,6Q3F,6Q48,6Q49,6Q4A,6Q4B,6Q4C,6Q4D,6Q4E,6Q4F,6Q4H,6Q4J,6Q4K,6RIJ,6SG4,7ACK,7B5L,7B5R,7B7S,7E34,7KJS,7M2F,7NVQ

> <UniProt (SwissProt) Recommended Name of Target Chain>
Cyclin-dependent kinase 2

> <UniProt (SwissProt) Entry Name of Target Chain>
CDK2_HUMAN

> <UniProt (SwissProt) Primary ID of Target Chain>
P24941

> <UniProt (SwissProt) Secondary ID(s) of Target Chain>
A8K7C6,O75100

> <UniProt (SwissProt) Alternative ID(s) of Target Chain>


> <UniProt (TrEMBL) Submitted Name of Target Chain>


> <UniProt (TrEMBL) Entry Name of Target Chain>


> <UniProt (TrEMBL) Primary ID of Target Chain>
A0A024RB77

> <UniProt (TrEMBL) Secondary ID(s) of Target Chain>


> <UniProt (TrEMBL) Alternative ID(s) of Target Chain>


$$$$
ttt_mol_1

Vconf v2.1
 52 55  0  0  0  0  0  0  0  0999 V2000
    2.2170    4.0490    0.9250 N   0  0  0  0  0  0  0  0  0  0  0
    1.9370    2.7490    0.7610 C   0  0  0  0  0  0  0  0  0  0  0
    2.9890    2.0310    0.1810 C   0  0  0  0  0  0  0  0  0  0  0
    4.3510    3.0450   -0.1670 S   0  0  0  0  0  0  0  0  0  0  0
    3.4420    4.3610    0.4910 C   0  0  0  0  0  0  0  0  0  0  0
    0.6360    2.2070    1.1680 C   0  0  0  0  0  0  0  0  0  0  0
    3.9250    5.6070    0.5620 N   0  0  0  0  0  0  0  0  0  0  0
    3.0090    0.6510   -0.1170 C   0  0  0  0  0  0  0  0  0  0  0
    4.1310    0.0670   -0.7330 C   0  0  0  0  0  0  0  0  0  0  0
    4.0900   -1.3040   -1.0190 C   0  0  0  0  0  0  0  0  0  0  0
    2.9950   -2.0320   -0.6980 N   0  0  0  0  0  0  0  0  0  0  0
    1.9200   -1.4740   -0.0960 C   0  0  0  0  0  0  0  0  0  0  0
    1.9500   -0.1450    0.1790 N   0  0  0  0  0  0  0  0  0  0  0
    0.8620   -2.2680    0.1950 N   0  0  0  0  0  0  0  0  0  0  0
   -0.2750   -1.8620    0.8140 C   0  0  0  0  0  0  0  0  0  0  0
   -2.7090   -1.7850    0.8570 C   0  0  0  0  0  0  0  0  0  0  0
   -1.5150   -2.1970    0.2440 C   0  0  0  0  0  0  0  0  0  0  0
   -0.2490   -1.1440    2.0260 C   0  0  0  0  0  0  0  0  0  0  0
   -1.4400   -0.7240    2.6460 C   0  0  0  0  0  0  0  0  0  0  0
   -2.6840   -1.0380    2.0520 C   0  0  0  0  0  0  0  0  0  0  0
   -1.3520    0.1930    4.1220 S   0  0  0  0  0  0  0  0  0  0  0
   -1.8200    1.6590    3.7190 O   0  0  0  0  0  0  0  0  0  0  0
   -2.1290   -0.6730    5.2070 O   0  0  0  0  0  0  0  0  0  0  0
    0.2420    0.2580    4.6820 N   0  0  0  0  0  0  0  0  0  0  0
    0.8380   -0.8830    5.2800 C   0  0  0  0  0  0  0  0  0  0  0
    1.2610   -0.5230    6.7120 C   0  0  0  0  0  0  0  0  0  0  0
    2.0490    0.6690    6.6870 O   0  0  0  0  0  0  0  0  0  0  0
    1.4330    1.8070    6.0820 C   0  0  0  0  0  0  0  0  0  0  0
    1.0000    1.4580    4.6490 C   0  0  0  0  0  0  0  0  0  0  0
   -3.9690   -0.6100    2.6300 C   0  0  0  0  0  0  0  0  0  0  0
    0.1260    1.7790    0.3050 H   0  0  0  0  0  0  0  0  0  0  0
    0.7830    1.4370    1.9220 H   0  0  0  0  0  0  0  0  0  0  0
    0.0150    2.9980    1.5900 H   0  0  0  0  0  0  0  0  0  0  0
    4.8180    5.8010    0.2380 H   0  0  0  0  0  0  0  0  0  0  0
    3.3790    6.3150    0.9380 H   0  0  0  0  0  0  0  0  0  0  0
    4.9570    0.6140   -0.9770 H   0  0  0  0  0  0  0  0  0  0  0
    4.8850   -1.7560   -1.4710 H   0  0  0  0  0  0  0  0  0  0  0
    0.9080   -3.1900   -0.0980 H   0  0  0  0  0  0  0  0  0  0  0
   -3.6030   -2.0230    0.4240 H   0  0  0  0  0  0  0  0  0  0  0
   -1.5520   -2.7300   -0.6260 H   0  0  0  0  0  0  0  0  0  0  0
    0.6480   -0.9160    2.4520 H   0  0  0  0  0  0  0  0  0  0  0
    1.7190   -1.1740    4.7070 H   0  0  0  0  0  0  0  0  0  0  0
    0.1360   -1.7180    5.3030 H   0  0  0  0  0  0  0  0  0  0  0
    1.8470   -1.3380    7.1370 H   0  0  0  0  0  0  0  0  0  0  0
    0.3730   -0.3620    7.3250 H   0  0  0  0  0  0  0  0  0  0  0
    0.5590    2.1020    6.6640 H   0  0  0  0  0  0  0  0  0  0  0
    2.1430    2.6340    6.0570 H   0  0  0  0  0  0  0  0  0  0  0
    0.4190    2.2810    4.2350 H   0  0  0  0  0  0  0  0  0  0  0
    1.8880    1.3060    4.0340 H   0  0  0  0  0  0  0  0  0  0  0
   -3.8350   -0.0080    3.5280 H   0  0  0  0  0  0  0  0  0  0  0
   -4.5160   -0.0130    1.8990 H   0  0  0  0  0  0  0  0  0  0  0
   -4.5630   -1.4880    2.8870 H   0  0  0  0  0  0  0  0  0  0  0
  1  2  1  0  0  0  0
  1  5  2  0  0  0  0
  2  3  2  0  0  0  0
  2  6  1  0  0  0  0
  3  4  1  0  0  0  0
  3  8  1  0  0  0  0
  4  5  1  0  0  0  0
  5  7  1  0  0  0  0
  6 31  1  0  0  0  0
  6 32  1  0  0  0  0
  6 33  1  0  0  0  0
  7 34  1  0  0  0  0
  7 35  1  0  0  0  0
  8  9  2  0  0  0  0
  8 13  1  0  0  0  0
  9 10  1  0  0  0  0
  9 36  1  0  0  0  0
 10 11  2  0  0  0  0
 10 37  1  0  0  0  0
 11 12  1  0  0  0  0
 12 13  2  0  0  0  0
 12 14  1  0  0  0  0
 14 15  1  0  0  0  0
 14 38  1  0  0  0  0
 15 17  2  0  0  0  0
 15 18  1  0  0  0  0
 16 17  1  0  0  0  0
 16 20  2  0  0  0  0
 16 39  1  0  0  0  0
 17 40  1  0  0  0  0
 18 19  2  0  0  0  0
 18 41  1  0  0  0  0
 19 20  1  0  0  0  0
 19 21  1  0  0  0  0
 20 30  1  0  0  0  0
 21 22  2  0  0  0  0
 21 23  2  0  0  0  0
 21 24  1  0  0  0  0
 24 25  1  0  0  0  0
 24 29  1  0  0  0  0
 25 26  1  0  0  0  0
 25 42  1  0  0  0  0
 25 43  1  0  0  0  0
 26 27  1  0  0  0  0
 26 44  1  0  0  0  0
 26 45  1  0  0  0  0
 27 28  1  0  0  0  0
 28 29  1  0  0  0  0
 28 46  1  0  0  0  0
 28 47  1  0  0  0  0
 29 48  1  0  0  0  0
 29 49  1  0  0  0  0
 30 50  1  0  0  0  0
 30 51  1  0  0  0  0
 30 52  1  0  0  0  0
M  END
> <From>
www.bindingDB.org

> <BindingDB Reactant_set_id>
153787

> <Ligand InChI>
InChI=1S/C19H22N6O3S2/c1-12-3-4-14(11-16(12)30(26,27)25-7-9-28-10-8-25)23-19-21-6-5-15(24-19)17-13(2)22-18(20)29-17/h3-6,11H,7-10H2,1-2H3,(H2,20,22)(H,21,23,24)

> <Ligand InChI Key>
OQWUAZIPUCLTLQ-UHFFFAOYSA-N

> <BindingDB MonomerID>
81437

> <BindingDB Ligand Name>
CDK Inhibitor, 10

> <Target Name Assigned by Curator or DataSource>
Cyclin-dependent kinase 2

> <Target Source Organism According to Curator or DataSource>
Homo sapiens

> <Ki (nM)>
>500

> <IC50 (nM)>


> <Kd (nM)>


> <EC50 (nM)>


> <kon (M-1-s-1)>


> <koff (s-1)>


> <pH>


> <Temp C>


> <Curation/DataSource>
Curated from the literature by BindingDB

> <Article DOI>
10.1016/j.chembiol.2010.07.016

> <PMID>
21035734

> <PubChem AID>


> <Patent Number>


> <Authors>
Wang, S; Griffiths, G; Midgley, CA; Barnett, AL; Cooper, M; Grabarek, J; Ingram, L; Jackson, W; Kontopidis, G; McClue, SJ; McInnes, C; McLachlan, J; Meades, C; Mezna, M; Stuart, I; Thomas, MP; Zheleva, DI; Lane, DP; Jackson, RC; Glover, DM; Blake, DG; Fischer, PM

> <Institution>
Cyclacel Limited

> <Link to Ligand in BindingDB>
http://www.bindingdb.org/bind/chemsearch/marvin/MolStructure.jsp?monomerid=81437

> <Link to Ligand-Target Pair in BindingDB>
http://www.bindingdb.org/jsp/dbsearch/PrimarySearch_ki.jsp?energyterm=kJ/mole&tag=pol&polymerid=796&target=Cyclin-dependent+kinase+2&column=ki&startPg=0&Increment=50&submit=Search

> <Link to Ligand-Target Pair in BindingDB>
http://www.bindingdb.org/jsp/dbsearch/PrimarySearch_ki.jsp?energyterm=kJ/mole&tag=r21&monomerid=81437&enzyme=Cyclin-dependent+kinase+2&column=ki&startPg=0&Increment=50&submit=Search

> <Ligand HET ID in PDB>


> <PDB ID(s) for Ligand-Target Complex>


> <PubChem CID>
11640878

> <PubChem SID>
131342011

> <ChEBI ID of Ligand>


> <ChEMBL ID of Ligand>


> <DrugBank ID of Ligand>


> <IUPHAR_GRAC ID of Ligand>


> <KEGG ID of Ligand>


> <ZINC ID of Ligand>
ZINC35984693

> <Number of Protein Chains in Target (bigger than 1 implies a multichain complex)>
1

> <BindingDB Target Chain Sequence>
MENFQKVEKIGEGTYGVVYKARNKLTGEVVALKKIRLDTETEGVPSTAIREISLLKELNHPNIVKLLDVIHTENKLYLVFEFLHQDLKKFMDASALTGIPLPLIKSYLFQLLQGLAFCHSHRVLHRDLKPQNLLINTEGAIKLADFGLARAFGVPVRTYTHEVVTLWYRAPEILLGCKYYSTAVDIWSLGCIFAEMVTRRALFPGDSEIDQLFRIFRTLGTPDEVVWPGVTSMPDYKPSFPKWARQDFSKVVPPLDEDGRSLLSQMLHYDPNKRISAKAALAHPFFQDVTKPVPHLRL

> <PDB ID(s) of Target Chain>
1CKP,1DI8,1DM2,1E1V,1E1X,1E9H,1F5Q,1FIN,1FQ1,1FVT,1FVV,1G5S,1GIH,1GY3,1GZ8,1H00,1H01,1H07,1H08,1H0V,1H0W,1H1P,1H1Q,1H1R,1H1S,1H24,1H25,1H26,1H27,1H28,1HCK,1HCL,1JST,1JSU,1JSV,1JVP,1KE5,1KE6,1KE7,1KE8,1KE9,1OGU,1OI9,1OIQ,1OIR,1OIU,1OIY,1OKV,1OKW,1OL1,1OL2,1P2A,1P5E,1PF8,1PKD,1PW2,1PXI,1PXJ,1PXK,1PXL,1PXM,1PXN,1PXO,1PXP,1PYE,1QMZ,1R78,1URC,1URW,1V1K,1VYW,1VYZ,1W0X,1W8C,1W98,1WCC,1Y8Y,1Y91,1YKR,2A0C,2A4L,2B52,2B53,2B54,2B55,2BHE,2BHH,2BKZ,2BPM,2BTR,2BTS,2C4G,2C5N,2C5O,2C5V,2C5X,2C5Y,2C68,2C69,2C6I,2C6K,2C6L,2C6M,2C6O,2C6T,2CCH,2CCI,2CJM,2CLX,2DUV,2EXM,2FVD,2G9X,2I40,2J9M,2JGZ,2R3F,2R3G,2R3H,2R3I,2R3J,2R3K,2R3L,2R3M,2R3N,2R3O,2R3P,2R3Q,2R3R,2R64,2UUE,2UZB,2UZD,2UZE,2UZL,2UZN,2UZO,2V0D,2V22,2VTA,2VTH,2VTI,2VTJ,2VTL,2VTM,2VTN,2VTO,2VTP,2VTQ,2VTR,2VTS,2VTT,2VU3,2VV9,2W05,2W06,2W17,2W1H,2WEV,2WFY,2WHB,2WIH,2WIP,2WMA,2WMB,2WPA,2WXV,2X1N,2XMY,2XNB,3BHT,3BHU,3BHV,3DDP,3DDQ,3DOG,3EID,3EJ1,3EOC,3EZR,3EZV,3F5X,3FZ1,3IG7,3IGG,3LE6,3LFN,3LFQ,3LFS,3MY5,3NS9,3PJ8,3PXF,3PXQ,3PXR,3PXY,3PXZ,3PY0,3PY1,3QHR,3QHW,3QL8,3QQF,3QQG,3QQH,3QQJ,3QQK,3QQL,3QRT,3QRU,3QTQ,3QTR,3QTS,3QTU,3QTW,3QTX,3QTZ,3QU0,3QWJ,3QWK,3QX2,3QX4,3QXO,3QXP,3QZF,3QZG,3QZH,3QZI,3R1Q,3R1S,3R1Y,3R28,3R6X,3R71,3R73,3R7E,3R7I,3R7U,3R7V,3R7Y,3R83,3R8L,3R8M,3R8P,3R8U,3R8V,3R8Z,3R9D,3R9H,3R9N,3R9O,3RAH,3RAI,3RAK,3RAL,3RJC,3RK5,3RK7,3RK9,3RKB,3RM6,3RM7,3RMF,3RNI,3ROY,3RPO,3RPR,3RPV,3RPY,3RZB,3S00,3S0O,3S1H,3S2P,3SQQ,3SW4,3SW7,3TI1,3TIY,3TIZ,3TNW,3ULI,3UNJ,3UNK,3WBL,4ACM,4BCK,4BCM,4BCN,4BCO,4BCP,4BCQ,4BGH,4BZD,4CFM,4CFN,4CFU,4CFV,4CFW,4CFX,4D1X,4D1Z,4EK3,4EK4,4EK5,4EK6,4EK8,4EOQ,4EOR,4EOS,4ERW,4EZ3,4EZ7,4FKG,4FKI,4FKJ,4FKL,4FKO,4FKP,4FKQ,4FKR,4FKS,4FKT,4FKU,4FKV,4FKW,4FX3,4GCJ,4I3Z,4II5,4KD1,4LYN,4NJ3,4RJ3,5A14,5AND,5ANE,5ANG,5ANI,5ANJ,5ANK,5ANO,5CYI,5D1J,5FP5,5FP6,5IEV,5IEX,5IEY,5IF1,5JQ5,5JQ8,5K4J,5L2W,5LMK,5MHQ,5NEV,5OO0,5OSJ,5UQ1,5UQ2,5UQ3,6ATH,6GUB,6GUC,6GUE,6GUF,6GUH,6GUK,6GVA,6INL,6JGM,6OQI,6P3W,6Q3B,6Q3C,6Q3F,6Q48,6Q49,6Q4A,6Q4B,6Q4C,6Q4D,6Q4E,6Q4F,6Q4H,6Q4J,6Q4K,6RIJ,6SG4,7ACK,7B5L,7B5R,7B7S,7E34,7KJS,7M2F,7NVQ

> <UniProt (SwissProt) Recommended Name of Target Chain>
Cyclin-dependent kinase 2

> <UniProt (SwissProt) Entry Name of Target Chain>
CDK2_HUMAN

> <UniProt (SwissProt) Primary ID of Target Chain>
P24941

> <UniProt (SwissProt) Secondary ID(s) of Target Chain>
A8K7C6,O75100

> <UniProt (SwissProt) Alternative ID(s) of Target Chain>


> <UniProt (TrEMBL) Submitted Name of Target Chain>


> <UniProt (TrEMBL) Entry Name of Target Chain>


> <UniProt (TrEMBL) Primary ID of Target Chain>
A0A024RB77

> <UniProt (TrEMBL) Secondary ID(s) of Target Chain>


> <UniProt (TrEMBL) Alternative ID(s) of Target Chain>


$$$$
BindingDB_50319616_mol_1

Vconf v2.0 Academic SN VC001-00000579
 52 55  0  0  0  0  0  0  0  0999 V2000
   -5.3350  -24.0280    0.6780 C   0  0  0  0  0  0  0  0  0  0  0
   -5.2350  -25.4260    0.7040 C   0  0  0  0  0  0  0  0  0  0  0
   -4.0260  -26.0260    0.5890 N   0  0  0  0  0  0  0  0  0  0  0
   -2.8900  -25.3060    0.4460 C   0  0  0  0  0  0  0  0  0  0  0
   -2.9790  -23.9530    0.4220 N   0  0  0  0  0  0  0  0  0  0  0
   -4.1510  -23.2820    0.5320 C   0  0  0  0  0  0  0  0  0  0  0
   -1.7060  -25.9500    0.3310 N   0  0  0  0  0  0  0  0  0  0  0
   -0.5310  -25.3020    0.1670 C   0  0  0  0  0  0  0  0  0  0  0
   -0.0860  -24.9640   -1.1240 C   0  0  0  0  0  0  0  0  0  0  0
    1.1080  -24.2420   -1.2920 C   0  0  0  0  0  0  0  0  0  0  0
    1.8710  -23.8560   -0.1720 C   0  0  0  0  0  0  0  0  0  0  0
    1.4310  -24.2120    1.1180 C   0  0  0  0  0  0  0  0  0  0  0
    0.2370  -24.9340    1.2880 C   0  0  0  0  0  0  0  0  0  0  0
   -4.1750  -21.8720    0.4990 C   0  0  0  0  0  0  0  0  0  0  0
   -5.6630  -20.9910    0.6140 S   0  0  0  0  0  0  0  0  0  0  0
   -4.7250  -19.5440    0.4820 C   0  0  0  0  0  0  0  0  0  0  0
   -3.4050  -19.7250    0.3670 N   0  0  0  0  0  0  0  0  0  0  0
   -3.0680  -21.0220    0.3750 C   0  0  0  0  0  0  0  0  0  0  0
   -1.6620  -21.4320    0.2650 C   0  0  0  0  0  0  0  0  0  0  0
   -5.2760  -18.3250    0.4930 N   0  0  0  0  0  0  0  0  0  0  0
    3.0070  -23.1290   -0.3340 N   0  0  0  0  0  0  0  0  0  0  0
    4.0920  -23.5920   -1.1400 C   0  0  0  0  0  0  0  0  0  0  0
    4.3630  -22.5690   -2.2560 C   0  0  0  0  0  0  0  0  0  0  0
    4.5220  -21.2670   -1.6790 N   0  0  0  0  0  0  0  0  0  0  0
    3.4200  -20.8140   -0.8840 C   0  0  0  0  0  0  0  0  0  0  0
    3.1460  -21.8280    0.2390 C   0  0  0  0  0  0  0  0  0  0  0
    5.6430  -20.5060   -1.8510 C   0  0  0  0  0  0  0  0  0  0  0
    5.7280  -19.3780   -1.3160 O   0  0  0  0  0  0  0  0  0  0  0
    6.7860  -20.9530   -2.6550 C   0  0  0  0  0  0  0  0  0  0  0
   -6.2470  -23.5780    0.7660 H   0  0  0  0  0  0  0  0  0  0  0
   -6.0760  -25.9950    0.8090 H   0  0  0  0  0  0  0  0  0  0  0
   -1.7030  -26.9190    0.3610 H   0  0  0  0  0  0  0  0  0  0  0
   -0.6380  -25.2260   -1.9420 H   0  0  0  0  0  0  0  0  0  0  0
    1.4150  -23.9880   -2.2310 H   0  0  0  0  0  0  0  0  0  0  0
    1.9760  -23.9390    1.9370 H   0  0  0  0  0  0  0  0  0  0  0
   -0.0800  -25.1750    2.2280 H   0  0  0  0  0  0  0  0  0  0  0
   -1.0230  -20.5520    0.1890 H   0  0  0  0  0  0  0  0  0  0  0
   -1.3730  -22.0020    1.1480 H   0  0  0  0  0  0  0  0  0  0  0
   -1.5230  -22.0460   -0.6260 H   0  0  0  0  0  0  0  0  0  0  0
   -4.7110  -17.5400    0.4160 H   0  0  0  0  0  0  0  0  0  0  0
   -6.2360  -18.2260    0.5790 H   0  0  0  0  0  0  0  0  0  0  0
    3.8840  -24.5650   -1.5890 H   0  0  0  0  0  0  0  0  0  0  0
    4.9830  -23.6810   -0.5170 H   0  0  0  0  0  0  0  0  0  0  0
    5.2370  -22.8970   -2.8190 H   0  0  0  0  0  0  0  0  0  0  0
    3.5080  -22.5520   -2.9330 H   0  0  0  0  0  0  0  0  0  0  0
    3.6000  -19.8360   -0.4330 H   0  0  0  0  0  0  0  0  0  0  0
    2.5340  -20.7410   -1.5170 H   0  0  0  0  0  0  0  0  0  0  0
    2.2490  -21.5190    0.7800 H   0  0  0  0  0  0  0  0  0  0  0
    3.9890  -21.8300    0.9310 H   0  0  0  0  0  0  0  0  0  0  0
    7.5610  -20.1860   -2.6630 H   0  0  0  0  0  0  0  0  0  0  0
    7.1970  -21.8680   -2.2270 H   0  0  0  0  0  0  0  0  0  0  0
    6.4610  -21.1410   -3.6780 H   0  0  0  0  0  0  0  0  0  0  0
  1  2  1  0  0  0  0
  1  6  2  0  0  0  0
  1 30  1  0  0  0  0
  2  3  2  0  0  0  0
  2 31  1  0  0  0  0
  3  4  1  0  0  0  0
  4  5  2  0  0  0  0
  4  7  1  0  0  0  0
  5  6  1  0  0  0  0
  6 14  1  0  0  0  0
  7  8  1  0  0  0  0
  7 32  1  0  0  0  0
  8  9  2  0  0  0  0
  8 13  1  0  0  0  0
  9 10  1  0  0  0  0
  9 33  1  0  0  0  0
 10 11  2  0  0  0  0
 10 34  1  0  0  0  0
 11 12  1  0  0  0  0
 11 21  1  0  0  0  0
 12 13  2  0  0  0  0
 12 35  1  0  0  0  0
 13 36  1  0  0  0  0
 14 15  1  0  0  0  0
 14 18  2  0  0  0  0
 15 16  1  0  0  0  0
 16 17  2  0  0  0  0
 16 20  1  0  0  0  0
 17 18  1  0  0  0  0
 18 19  1  0  0  0  0
 19 37  1  0  0  0  0
 19 38  1  0  0  0  0
 19 39  1  0  0  0  0
 20 40  1  0  0  0  0
 20 41  1  0  0  0  0
 21 22  1  0  0  0  0
 21 26  1  0  0  0  0
 22 23  1  0  0  0  0
 22 42  1  0  0  0  0
 22 43  1  0  0  0  0
 23 24  1  0  0  0  0
 23 44  1  0  0  0  0
 23 45  1  0  0  0  0
 24 25  1  0  0  0  0
 24 27  1  0  0  0  0
 25 26  1  0  0  0  0
 25 46  1  0  0  0  0
 25 47  1  0  0  0  0
 26 48  1  0  0  0  0
 26 49  1  0  0  0  0
 27 28  2  0  0  0  0
 27 29  1  0  0  0  0
 29 50  1  0  0  0  0
 29 51  1  0  0  0  0
 29 52  1  0  0  0  0
M  END
> <From>
www.bindingDB.org

> <BindingDB Reactant_set_id>
50579842

> <Ligand InChI>
InChI=1S/C20H23N7OS/c1-13-18(29-19(21)23-13)17-7-8-22-20(25-17)24-15-3-5-16(6-4-15)27-11-9-26(10-12-27)14(2)28/h3-8H,9-12H2,1-2H3,(H2,21,23)(H,22,24,25)

> <Ligand InChI Key>
ZBYYPNTVDDUJTC-UHFFFAOYSA-N

> <BindingDB MonomerID>
50319616

> <BindingDB Ligand Name>
1-(4-(4-(4-(2-Amino-4-methylthiazol-5-yl)pyrimidin-2-ylamino)phenyl)piperazin-1-yl)ethanone::CHEMBL1084969

> <Target Name Assigned by Curator or DataSource>
Cyclin-dependent kinase 2

> <Target Source Organism According to Curator or DataSource>
Homo sapiens

> <Ki (nM)>
 522

> <IC50 (nM)>


> <Kd (nM)>


> <EC50 (nM)>


> <kon (M-1-s-1)>


> <koff (s-1)>


> <pH>


> <Temp C>


> <Curation/DataSource>
ChEMBL

> <Article DOI>
10.1021/jm901913s

> <PMID>
20462263

> <PubChem AID>


> <Patent Number>


> <Authors>
Wang, S; Midgley, CA; Scaerou, F; Grabarek, JB; Griffiths, G; Jackson, W; Kontopidis, G; McClue, SJ; McInnes, C; Meades, C; Mezna, M; Plater, A; Stuart, I; Thomas, MP; Wood, G; Clarke, RG; Blake, DG; Zheleva, DI; Lane, DP; Jackson, RC; Glover, DM; Fischer, PM

> <Institution>
Cyclacel Ltd

> <Link to Ligand in BindingDB>
http://www.bindingdb.org/bind/chemsearch/marvin/MolStructure.jsp?monomerid=50319616

> <Link to Ligand-Target Pair in BindingDB>
http://www.bindingdb.org/jsp/dbsearch/PrimarySearch_ki.jsp?energyterm=kJ/mole&tag=pol&polymerid=796&target=Cyclin-dependent+kinase+2&column=ki&startPg=0&Increment=50&submit=Search

> <Link to Ligand-Target Pair in BindingDB>
http://www.bindingdb.org/jsp/dbsearch/PrimarySearch_ki.jsp?energyterm=kJ/mole&tag=r21&monomerid=50319616&enzyme=Cyclin-dependent+kinase+2&column=ki&startPg=0&Increment=50&submit=Search

> <Ligand HET ID in PDB>


> <PDB ID(s) for Ligand-Target Complex>


> <PubChem CID>
46830768

> <PubChem SID>
104153977

> <ChEBI ID of Ligand>


> <ChEMBL ID of Ligand>
CHEMBL1084969

> <DrugBank ID of Ligand>


> <IUPHAR_GRAC ID of Ligand>


> <KEGG ID of Ligand>


> <ZINC ID of Ligand>
ZINC49037499

> <Number of Protein Chains in Target (bigger than 1 implies a multichain complex)>
1

> <BindingDB Target Chain Sequence>
MENFQKVEKIGEGTYGVVYKARNKLTGEVVALKKIRLDTETEGVPSTAIREISLLKELNHPNIVKLLDVIHTENKLYLVFEFLHQDLKKFMDASALTGIPLPLIKSYLFQLLQGLAFCHSHRVLHRDLKPQNLLINTEGAIKLADFGLARAFGVPVRTYTHEVVTLWYRAPEILLGCKYYSTAVDIWSLGCIFAEMVTRRALFPGDSEIDQLFRIFRTLGTPDEVVWPGVTSMPDYKPSFPKWARQDFSKVVPPLDEDGRSLLSQMLHYDPNKRISAKAALAHPFFQDVTKPVPHLRL

> <PDB ID(s) of Target Chain>
1CKP,1DI8,1DM2,1E1V,1E1X,1E9H,1F5Q,1FIN,1FQ1,1FVT,1FVV,1G5S,1GIH,1GY3,1GZ8,1H00,1H01,1H07,1H08,1H0V,1H0W,1H1P,1H1Q,1H1R,1H1S,1H24,1H25,1H26,1H27,1H28,1HCK,1HCL,1JST,1JSU,1JSV,1JVP,1KE5,1KE6,1KE7,1KE8,1KE9,1OGU,1OI9,1OIQ,1OIR,1OIU,1OIY,1OKV,1OKW,1OL1,1OL2,1P2A,1P5E,1PF8,1PKD,1PW2,1PXI,1PXJ,1PXK,1PXL,1PXM,1PXN,1PXO,1PXP,1PYE,1QMZ,1R78,1URC,1URW,1V1K,1VYW,1VYZ,1W0X,1W8C,1W98,1WCC,1Y8Y,1Y91,1YKR,2A0C,2A4L,2B52,2B53,2B54,2B55,2BHE,2BHH,2BKZ,2BPM,2BTR,2BTS,2C4G,2C5N,2C5O,2C5V,2C5X,2C5Y,2C68,2C69,2C6I,2C6K,2C6L,2C6M,2C6O,2C6T,2CCH,2CCI,2CJM,2CLX,2DUV,2EXM,2FVD,2G9X,2I40,2J9M,2JGZ,2R3F,2R3G,2R3H,2R3I,2R3J,2R3K,2R3L,2R3M,2R3N,2R3O,2R3P,2R3Q,2R3R,2R64,2UUE,2UZB,2UZD,2UZE,2UZL,2UZN,2UZO,2V0D,2V22,2VTA,2VTH,2VTI,2VTJ,2VTL,2VTM,2VTN,2VTO,2VTP,2VTQ,2VTR,2VTS,2VTT,2VU3,2VV9,2W05,2W06,2W17,2W1H,2WEV,2WFY,2WHB,2WIH,2WIP,2WMA,2WMB,2WPA,2WXV,2X1N,2XMY,2XNB,3BHT,3BHU,3BHV,3DDP,3DDQ,3DOG,3EID,3EJ1,3EOC,3EZR,3EZV,3F5X,3FZ1,3IG7,3IGG,3LE6,3LFN,3LFQ,3LFS,3MY5,3NS9,3PJ8,3PXF,3PXQ,3PXR,3PXY,3PXZ,3PY0,3PY1,3QHR,3QHW,3QL8,3QQF,3QQG,3QQH,3QQJ,3QQK,3QQL,3QRT,3QRU,3QTQ,3QTR,3QTS,3QTU,3QTW,3QTX,3QTZ,3QU0,3QWJ,3QWK,3QX2,3QX4,3QXO,3QXP,3QZF,3QZG,3QZH,3QZI,3R1Q,3R1S,3R1Y,3R28,3R6X,3R71,3R73,3R7E,3R7I,3R7U,3R7V,3R7Y,3R83,3R8L,3R8M,3R8P,3R8U,3R8V,3R8Z,3R9D,3R9H,3R9N,3R9O,3RAH,3RAI,3RAK,3RAL,3RJC,3RK5,3RK7,3RK9,3RKB,3RM6,3RM7,3RMF,3RNI,3ROY,3RPO,3RPR,3RPV,3RPY,3RZB,3S00,3S0O,3S1H,3S2P,3SQQ,3SW4,3SW7,3TI1,3TIY,3TIZ,3TNW,3ULI,3UNJ,3UNK,3WBL,4ACM,4BCK,4BCM,4BCN,4BCO,4BCP,4BCQ,4BGH,4BZD,4CFM,4CFN,4CFU,4CFV,4CFW,4CFX,4D1X,4D1Z,4EK3,4EK4,4EK5,4EK6,4EK8,4EOQ,4EOR,4EOS,4ERW,4EZ3,4EZ7,4FKG,4FKI,4FKJ,4FKL,4FKO,4FKP,4FKQ,4FKR,4FKS,4FKT,4FKU,4FKV,4FKW,4FX3,4GCJ,4I3Z,4II5,4KD1,4LYN,4NJ3,4RJ3,5A14,5AND,5ANE,5ANG,5ANI,5ANJ,5ANK,5ANO,5CYI,5D1J,5FP5,5FP6,5IEV,5IEX,5IEY,5IF1,5JQ5,5JQ8,5K4J,5L2W,5LMK,5MHQ,5NEV,5OO0,5OSJ,5UQ1,5UQ2,5UQ3,6ATH,6GUB,6GUC,6GUE,6GUF,6GUH,6GUK,6GVA,6INL,6JGM,6OQI,6P3W,6Q3B,6Q3C,6Q3F,6Q48,6Q49,6Q4A,6Q4B,6Q4C,6Q4D,6Q4E,6Q4F,6Q4H,6Q4J,6Q4K,6RIJ,6SG4,7ACK,7B5L,7B5R,7B7S,7E34,7KJS,7M2F,7NVQ

> <UniProt (SwissProt) Recommended Name of Target Chain>
Cyclin-dependent kinase 2

> <UniProt (SwissProt) Entry Name of Target Chain>
CDK2_HUMAN

> <UniProt (SwissProt) Primary ID of Target Chain>
P24941

> <UniProt (SwissProt) Secondary ID(s) of Target Chain>
A8K7C6,O75100

> <UniProt (SwissProt) Alternative ID(s) of Target Chain>


> <UniProt (TrEMBL) Submitted Name of Target Chain>


> <UniProt (TrEMBL) Entry Name of Target Chain>


> <UniProt (TrEMBL) Primary ID of Target Chain>
A0A024RB77

> <UniProt (TrEMBL) Secondary ID(s) of Target Chain>


> <UniProt (TrEMBL) Alternative ID(s) of Target Chain>


$$$$
indirubin

Vconf v2.0 Academic SN VC001-00000579
 32 35  0  0  0  0  0  0  0  0999 V2000
   -1.6860    1.7190    0.4100 C   0  0  0  0  0  0  0  0  0  0  0
   -2.6170    4.4080    0.4170 C   0  0  0  0  0  0  0  0  0  0  0
   -3.5270    3.3350    0.3230 C   0  0  0  0  0  0  0  0  0  0  0
   -3.0650    2.0000    0.3190 C   0  0  0  0  0  0  0  0  0  0  0
   -1.2460    4.1130    0.5070 C   0  0  0  0  0  0  0  0  0  0  0
   -0.1310    4.9380    0.6080 C   0  0  0  0  0  0  0  0  0  0  0
   -0.7930    2.7970    0.5040 C   0  0  0  0  0  0  0  0  0  0  0
    0.9800    4.0830    0.6680 C   0  0  0  0  0  0  0  0  0  0  0
    0.5430    2.8080    0.6000 N   0  0  0  0  0  0  0  0  0  0  0
    2.3990    4.4860    0.7690 C   0  0  1  0  0  0  0  0  0  0  0
    3.2640    3.4340    1.3390 C   0  0  0  0  0  0  0  0  0  0  0
    3.1360    2.9650    2.4910 O   0  0  0  0  0  0  0  0  0  0  0
    4.2140    3.0270    0.4820 N   0  0  0  0  0  0  0  0  0  0  0
    3.0440    4.6120   -0.5460 C   0  0  0  0  0  0  0  0  0  0  0
    4.1080    3.7160   -0.6540 C   0  0  0  0  0  0  0  0  0  0  0
    4.8880    3.6400   -1.8180 C   0  0  0  0  0  0  0  0  0  0  0
    4.5760    4.4990   -2.8900 C   0  0  0  0  0  0  0  0  0  0  0
    3.5070    5.4140   -2.7860 C   0  0  0  0  0  0  0  0  0  0  0
    2.7340    5.4780   -1.6100 C   0  0  0  0  0  0  0  0  0  0  0
   -0.1790    6.2530    0.6330 N   0  0  0  0  0  0  0  0  0  0  0
    0.7570    6.9440    0.7130 O   0  0  0  0  0  0  0  0  0  0  0
   -1.3470    0.7570    0.4070 H   0  0  0  0  0  0  0  0  0  0  0
   -2.9480    5.3730    0.4200 H   0  0  0  0  0  0  0  0  0  0  0
   -4.5270    3.5240    0.2570 H   0  0  0  0  0  0  0  0  0  0  0
   -3.7340    1.2330    0.2500 H   0  0  0  0  0  0  0  0  0  0  0
    1.1090    2.0210    0.6190 H   0  0  0  0  0  0  0  0  0  0  0
    2.5120    5.4010    1.3500 H   0  0  0  0  0  0  0  0  0  0  0
    4.8810    2.3480    0.6680 H   0  0  0  0  0  0  0  0  0  0  0
    5.6630    2.9800   -1.8860 H   0  0  0  0  0  0  0  0  0  0  0
    5.1290    4.4610   -3.7470 H   0  0  0  0  0  0  0  0  0  0  0
    3.2920    6.0330   -3.5680 H   0  0  0  0  0  0  0  0  0  0  0
    1.9610    6.1400   -1.5330 H   0  0  0  0  0  0  0  0  0  0  0
  1  4  1  0  0  0  0
  1  7  2  0  0  0  0
  1 22  1  0  0  0  0
  2  3  1  0  0  0  0
  2  5  2  0  0  0  0
  2 23  1  0  0  0  0
  3  4  2  0  0  0  0
  3 24  1  0  0  0  0
  4 25  1  0  0  0  0
  5  6  1  0  0  0  0
  5  7  1  0  0  0  0
  6  8  2  0  0  0  0
  6 20  1  0  0  0  0
  7  9  1  0  0  0  0
  8  9  1  0  0  0  0
  8 10  1  0  0  0  0
  9 26  1  0  0  0  0
 10 11  1  0  0  0  0
 10 14  1  0  0  0  0
 10 27  1  0  0  0  0
 11 12  2  0  0  0  0
 11 13  1  0  0  0  0
 13 15  1  0  0  0  0
 13 28  1  0  0  0  0
 14 15  1  0  0  0  0
 14 19  2  0  0  0  0
 15 16  2  0  0  0  0
 16 17  1  0  0  0  0
 16 29  1  0  0  0  0
 17 18  2  0  0  0  0
 17 30  1  0  0  0  0
 18 19  1  0  0  0  0
 18 31  1  0  0  0  0
 19 32  1  0  0  0  0
 20 21  2  0  0  0  0
M  END
> <From>
www.bindingDB.org

> <BindingDB Reactant_set_id>
184849

> <Ligand InChI>
InChI=1S/C16H11N3O2/c20-16-13(9-5-1-3-7-11(9)18-16)15-14(19-21)10-6-2-4-8-12(10)17-15/h1-8,13,17H,(H,18,20)

> <Ligand InChI Key>
HOQNHSNBIIJJBO-UHFFFAOYSA-N

> <BindingDB MonomerID>
7393

> <BindingDB Ligand Name>
3-[(2Z,3E)-3-(hydroxyimino)-2,3-dihydro-1H-indol-2-ylidene]-2,3-dihydro-1H-indol-2-one::CHEMBL397695::Indirubin-3 -monoxime::Indirubin-3-monoxime::Indirubin-3monoxime::indirubin deriv. 7h

> <Target Name Assigned by Curator or DataSource>
Cyclin-dependent kinase 2

> <Target Source Organism According to Curator or DataSource>
Homo sapiens

> <Ki (nM)>
 590

> <IC50 (nM)>


> <Kd (nM)>


> <EC50 (nM)>


> <kon (M-1-s-1)>


> <koff (s-1)>


> <pH>


> <Temp C>


> <Curation/DataSource>
PDSP Ki

> <Article DOI>
10.1042/BJ20021535

> <PMID>
12534346

> <PubChem AID>


> <Patent Number>


> <Authors>
Bain, J; McLauchlan, H; Elliott, M; Cohen, P

> <Institution>
University of Dundee

> <Link to Ligand in BindingDB>
http://www.bindingdb.org/bind/chemsearch/marvin/MolStructure.jsp?monomerid=7393

> <Link to Ligand-Target Pair in BindingDB>
http://www.bindingdb.org/jsp/dbsearch/PrimarySearch_ki.jsp?energyterm=kJ/mole&tag=pol&polymerid=796&target=Cyclin-dependent+kinase+2&column=ki&startPg=0&Increment=50&submit=Search

> <Link to Ligand-Target Pair in BindingDB>
http://www.bindingdb.org/jsp/dbsearch/PrimarySearch_ki.jsp?energyterm=kJ/mole&tag=r21&monomerid=7393&enzyme=Cyclin-dependent+kinase+2&column=ki&startPg=0&Increment=50&submit=Search

> <Ligand HET ID in PDB>
IXM

> <PDB ID(s) for Ligand-Target Complex>
1UNH,1Q41,2QKR

> <PubChem CID>
91530809

> <PubChem SID>
11108184

> <ChEBI ID of Ligand>


> <ChEMBL ID of Ligand>
CHEMBL397695

> <DrugBank ID of Ligand>


> <IUPHAR_GRAC ID of Ligand>
5989

> <KEGG ID of Ligand>


> <ZINC ID of Ligand>
ZINC18230030

> <Number of Protein Chains in Target (bigger than 1 implies a multichain complex)>
1

> <BindingDB Target Chain Sequence>
MENFQKVEKIGEGTYGVVYKARNKLTGEVVALKKIRLDTETEGVPSTAIREISLLKELNHPNIVKLLDVIHTENKLYLVFEFLHQDLKKFMDASALTGIPLPLIKSYLFQLLQGLAFCHSHRVLHRDLKPQNLLINTEGAIKLADFGLARAFGVPVRTYTHEVVTLWYRAPEILLGCKYYSTAVDIWSLGCIFAEMVTRRALFPGDSEIDQLFRIFRTLGTPDEVVWPGVTSMPDYKPSFPKWARQDFSKVVPPLDEDGRSLLSQMLHYDPNKRISAKAALAHPFFQDVTKPVPHLRL

> <PDB ID(s) of Target Chain>
1CKP,1DI8,1DM2,1E1V,1E1X,1E9H,1F5Q,1FIN,1FQ1,1FVT,1FVV,1G5S,1GIH,1GY3,1GZ8,1H00,1H01,1H07,1H08,1H0V,1H0W,1H1P,1H1Q,1H1R,1H1S,1H24,1H25,1H26,1H27,1H28,1HCK,1HCL,1JST,1JSU,1JSV,1JVP,1KE5,1KE6,1KE7,1KE8,1KE9,1OGU,1OI9,1OIQ,1OIR,1OIU,1OIY,1OKV,1OKW,1OL1,1OL2,1P2A,1P5E,1PF8,1PKD,1PW2,1PXI,1PXJ,1PXK,1PXL,1PXM,1PXN,1PXO,1PXP,1PYE,1QMZ,1R78,1URC,1URW,1V1K,1VYW,1VYZ,1W0X,1W8C,1W98,1WCC,1Y8Y,1Y91,1YKR,2A0C,2A4L,2B52,2B53,2B54,2B55,2BHE,2BHH,2BKZ,2BPM,2BTR,2BTS,2C4G,2C5N,2C5O,2C5V,2C5X,2C5Y,2C68,2C69,2C6I,2C6K,2C6L,2C6M,2C6O,2C6T,2CCH,2CCI,2CJM,2CLX,2DUV,2EXM,2FVD,2G9X,2I40,2J9M,2JGZ,2R3F,2R3G,2R3H,2R3I,2R3J,2R3K,2R3L,2R3M,2R3N,2R3O,2R3P,2R3Q,2R3R,2R64,2UUE,2UZB,2UZD,2UZE,2UZL,2UZN,2UZO,2V0D,2V22,2VTA,2VTH,2VTI,2VTJ,2VTL,2VTM,2VTN,2VTO,2VTP,2VTQ,2VTR,2VTS,2VTT,2VU3,2VV9,2W05,2W06,2W17,2W1H,2WEV,2WFY,2WHB,2WIH,2WIP,2WMA,2WMB,2WPA,2WXV,2X1N,2XMY,2XNB,3BHT,3BHU,3BHV,3DDP,3DDQ,3DOG,3EID,3EJ1,3EOC,3EZR,3EZV,3F5X,3FZ1,3IG7,3IGG,3LE6,3LFN,3LFQ,3LFS,3MY5,3NS9,3PJ8,3PXF,3PXQ,3PXR,3PXY,3PXZ,3PY0,3PY1,3QHR,3QHW,3QL8,3QQF,3QQG,3QQH,3QQJ,3QQK,3QQL,3QRT,3QRU,3QTQ,3QTR,3QTS,3QTU,3QTW,3QTX,3QTZ,3QU0,3QWJ,3QWK,3QX2,3QX4,3QXO,3QXP,3QZF,3QZG,3QZH,3QZI,3R1Q,3R1S,3R1Y,3R28,3R6X,3R71,3R73,3R7E,3R7I,3R7U,3R7V,3R7Y,3R83,3R8L,3R8M,3R8P,3R8U,3R8V,3R8Z,3R9D,3R9H,3R9N,3R9O,3RAH,3RAI,3RAK,3RAL,3RJC,3RK5,3RK7,3RK9,3RKB,3RM6,3RM7,3RMF,3RNI,3ROY,3RPO,3RPR,3RPV,3RPY,3RZB,3S00,3S0O,3S1H,3S2P,3SQQ,3SW4,3SW7,3TI1,3TIY,3TIZ,3TNW,3ULI,3UNJ,3UNK,3WBL,4ACM,4BCK,4BCM,4BCN,4BCO,4BCP,4BCQ,4BGH,4BZD,4CFM,4CFN,4CFU,4CFV,4CFW,4CFX,4D1X,4D1Z,4EK3,4EK4,4EK5,4EK6,4EK8,4EOQ,4EOR,4EOS,4ERW,4EZ3,4EZ7,4FKG,4FKI,4FKJ,4FKL,4FKO,4FKP,4FKQ,4FKR,4FKS,4FKT,4FKU,4FKV,4FKW,4FX3,4GCJ,4I3Z,4II5,4KD1,4LYN,4NJ3,4RJ3,5A14,5AND,5ANE,5ANG,5ANI,5ANJ,5ANK,5ANO,5CYI,5D1J,5FP5,5FP6,5IEV,5IEX,5IEY,5IF1,5JQ5,5JQ8,5K4J,5L2W,5LMK,5MHQ,5NEV,5OO0,5OSJ,5UQ1,5UQ2,5UQ3,6ATH,6GUB,6GUC,6GUE,6GUF,6GUH,6GUK,6GVA,6INL,6JGM,6OQI,6P3W,6Q3B,6Q3C,6Q3F,6Q48,6Q49,6Q4A,6Q4B,6Q4C,6Q4D,6Q4E,6Q4F,6Q4H,6Q4J,6Q4K,6RIJ,6SG4,7ACK,7B5L,7B5R,7B7S,7E34,7KJS,7M2F,7NVQ

> <UniProt (SwissProt) Recommended Name of Target Chain>
Cyclin-dependent kinase 2

> <UniProt (SwissProt) Entry Name of Target Chain>
CDK2_HUMAN

> <UniProt (SwissProt) Primary ID of Target Chain>
P24941

> <UniProt (SwissProt) Secondary ID(s) of Target Chain>
A8K7C6,O75100

> <UniProt (SwissProt) Alternative ID(s) of Target Chain>


> <UniProt (TrEMBL) Submitted Name of Target Chain>


> <UniProt (TrEMBL) Entry Name of Target Chain>


> <UniProt (TrEMBL) Primary ID of Target Chain>
A0A024RB77

> <UniProt (TrEMBL) Secondary ID(s) of Target Chain>


> <UniProt (TrEMBL) Alternative ID(s) of Target Chain>


$$$$
9-bromopaullone

Vconf v2.0 Academic SN VC001-00000579
 31 34  0  0  0  0  0  0  0  0999 V2000
    0.9720    3.0260   -0.4480 C   0  0  0  0  0  0  0  0  0  0  0
    1.2560    1.6310   -0.0920 C   0  0  0  0  0  0  0  0  0  0  0
    1.3420    3.4510   -1.5640 O   0  0  0  0  0  0  0  0  0  0  0
    0.3490    3.9000    0.3770 N   0  0  0  0  0  0  0  0  0  0  0
   -0.7720    2.4680    2.0690 C   0  0  0  0  0  0  0  0  0  0  0
   -0.1470    3.6690    1.6270 C   0  0  0  0  0  0  0  0  0  0  0
   -0.0970    4.7800    2.4940 C   0  0  0  0  0  0  0  0  0  0  0
   -0.6450    4.7140    3.7840 C   0  0  0  0  0  0  0  0  0  0  0
   -1.2670    3.5360    4.2190 C   0  0  0  0  0  0  0  0  0  0  0
   -1.3350    2.4250    3.3650 C   0  0  0  0  0  0  0  0  0  0  0
    0.0170    0.9250    0.2570 C   0  0  0  0  0  0  0  0  0  0  0
   -0.8750    1.3120    1.2610 C   0  0  0  0  0  0  0  0  0  0  0
   -1.8490    0.3820    1.3430 N   0  0  0  0  0  0  0  0  0  0  0
   -0.4760   -0.2610   -0.2790 C   0  0  0  0  0  0  0  0  0  0  0
   -1.6380   -0.5690    0.4220 C   0  0  0  0  0  0  0  0  0  0  0
   -0.7380   -2.2600   -1.6160 C   0  0  0  0  0  0  0  0  0  0  0
   -0.0010   -1.0970   -1.3040 C   0  0  0  0  0  0  0  0  0  0  0
   -2.3800   -1.7220    0.1260 C   0  0  0  0  0  0  0  0  0  0  0
   -1.9210   -2.5690   -0.9030 C   0  0  0  0  0  0  0  0  0  0  0
   -0.1480   -3.3930   -2.9690 Br  0  0  0  0  0  0  0  0  0  0  0
    1.9260    1.6190    0.7680 H   0  0  0  0  0  0  0  0  0  0  0
    1.7560    1.1360   -0.9260 H   0  0  0  0  0  0  0  0  0  0  0
    0.2750    4.8080    0.0460 H   0  0  0  0  0  0  0  0  0  0  0
    0.3370    5.6500    2.1830 H   0  0  0  0  0  0  0  0  0  0  0
   -0.5980    5.5260    4.4010 H   0  0  0  0  0  0  0  0  0  0  0
   -1.6710    3.4880    5.1540 H   0  0  0  0  0  0  0  0  0  0  0
   -1.7920    1.5760    3.7050 H   0  0  0  0  0  0  0  0  0  0  0
   -2.5940    0.4050    1.9630 H   0  0  0  0  0  0  0  0  0  0  0
    0.8550   -0.8630   -1.8090 H   0  0  0  0  0  0  0  0  0  0  0
   -3.2320   -1.9430    0.6430 H   0  0  0  0  0  0  0  0  0  0  0
   -2.4530   -3.4100   -1.1290 H   0  0  0  0  0  0  0  0  0  0  0
  1  2  1  0  0  0  0
  1  3  2  0  0  0  0
  1  4  1  0  0  0  0
  2 11  1  0  0  0  0
  2 21  1  0  0  0  0
  2 22  1  0  0  0  0
  4  6  1  0  0  0  0
  4 23  1  0  0  0  0
  5  6  1  0  0  0  0
  5 10  2  0  0  0  0
  5 12  1  0  0  0  0
  6  7  2  0  0  0  0
  7  8  1  0  0  0  0
  7 24  1  0  0  0  0
  8  9  2  0  0  0  0
  8 25  1  0  0  0  0
  9 10  1  0  0  0  0
  9 26  1  0  0  0  0
 10 27  1  0  0  0  0
 11 12  2  0  0  0  0
 11 14  1  0  0  0  0
 12 13  1  0  0  0  0
 13 15  1  0  0  0  0
 13 28  1  0  0  0  0
 14 15  1  0  0  0  0
 14 17  2  0  0  0  0
 15 18  2  0  0  0  0
 16 17  1  0  0  0  0
 16 19  2  0  0  0  0
 16 20  1  0  0  0  0
 17 29  1  0  0  0  0
 18 19  1  0  0  0  0
 18 30  1  0  0  0  0
 19 31  1  0  0  0  0
M  END
> <From>
www.bindingDB.org

> <BindingDB Reactant_set_id>
184850

> <Ligand InChI>
InChI=1S/C16H11BrN2O/c17-9-5-6-14-11(7-9)12-8-15(20)18-13-4-2-1-3-10(13)16(12)19-14/h1-7,19H,8H2,(H,18,20)

> <Ligand InChI Key>
QQUXFYAWXPMDOE-UHFFFAOYSA-N

> <BindingDB MonomerID>
7266

> <BindingDB Ligand Name>
14-bromo-8,18-diazatetracyclo[9.7.0.0^{2,7}.0^{12,17}]octadeca-1(11),2,4,6,12(17),13,15-heptaen-9-one::9-bromopaullone::CHEMBL296586::Kenpaullone::NSC 664704::Paullone Analog 5::cid_3820

> <Target Name Assigned by Curator or DataSource>
Cyclin-dependent kinase 2

> <Target Source Organism According to Curator or DataSource>
Homo sapiens

> <Ki (nM)>
 670

> <IC50 (nM)>


> <Kd (nM)>


> <EC50 (nM)>


> <kon (M-1-s-1)>


> <koff (s-1)>


> <pH>


> <Temp C>


> <Curation/DataSource>
PDSP Ki

> <Article DOI>
10.1042/BJ20021535

> <PMID>
12534346

> <PubChem AID>


> <Patent Number>


> <Authors>
Bain, J; McLauchlan, H; Elliott, M; Cohen, P

> <Institution>
University of Dundee

> <Link to Ligand in BindingDB>
http://www.bindingdb.org/bind/chemsearch/marvin/MolStructure.jsp?monomerid=7266

> <Link to Ligand-Target Pair in BindingDB>
http://www.bindingdb.org/jsp/dbsearch/PrimarySearch_ki.jsp?energyterm=kJ/mole&tag=pol&polymerid=796&target=Cyclin-dependent+kinase+2&column=ki&startPg=0&Increment=50&submit=Search

> <Link to Ligand-Target Pair in BindingDB>
http://www.bindingdb.org/jsp/dbsearch/PrimarySearch_ki.jsp?energyterm=kJ/mole&tag=r21&monomerid=7266&enzyme=Cyclin-dependent+kinase+2&column=ki&startPg=0&Increment=50&submit=Search

> <Ligand HET ID in PDB>


> <PDB ID(s) for Ligand-Target Complex>


> <PubChem CID>
3820

> <PubChem SID>
8036822

> <ChEBI ID of Ligand>


> <ChEMBL ID of Ligand>
CHEMBL296586

> <DrugBank ID of Ligand>


> <IUPHAR_GRAC ID of Ligand>
6000

> <KEGG ID of Ligand>


> <ZINC ID of Ligand>
ZINC01639355

> <Number of Protein Chains in Target (bigger than 1 implies a multichain complex)>
1

> <BindingDB Target Chain Sequence>
MENFQKVEKIGEGTYGVVYKARNKLTGEVVALKKIRLDTETEGVPSTAIREISLLKELNHPNIVKLLDVIHTENKLYLVFEFLHQDLKKFMDASALTGIPLPLIKSYLFQLLQGLAFCHSHRVLHRDLKPQNLLINTEGAIKLADFGLARAFGVPVRTYTHEVVTLWYRAPEILLGCKYYSTAVDIWSLGCIFAEMVTRRALFPGDSEIDQLFRIFRTLGTPDEVVWPGVTSMPDYKPSFPKWARQDFSKVVPPLDEDGRSLLSQMLHYDPNKRISAKAALAHPFFQDVTKPVPHLRL

> <PDB ID(s) of Target Chain>
1CKP,1DI8,1DM2,1E1V,1E1X,1E9H,1F5Q,1FIN,1FQ1,1FVT,1FVV,1G5S,1GIH,1GY3,1GZ8,1H00,1H01,1H07,1H08,1H0V,1H0W,1H1P,1H1Q,1H1R,1H1S,1H24,1H25,1H26,1H27,1H28,1HCK,1HCL,1JST,1JSU,1JSV,1JVP,1KE5,1KE6,1KE7,1KE8,1KE9,1OGU,1OI9,1OIQ,1OIR,1OIU,1OIY,1OKV,1OKW,1OL1,1OL2,1P2A,1P5E,1PF8,1PKD,1PW2,1PXI,1PXJ,1PXK,1PXL,1PXM,1PXN,1PXO,1PXP,1PYE,1QMZ,1R78,1URC,1URW,1V1K,1VYW,1VYZ,1W0X,1W8C,1W98,1WCC,1Y8Y,1Y91,1YKR,2A0C,2A4L,2B52,2B53,2B54,2B55,2BHE,2BHH,2BKZ,2BPM,2BTR,2BTS,2C4G,2C5N,2C5O,2C5V,2C5X,2C5Y,2C68,2C69,2C6I,2C6K,2C6L,2C6M,2C6O,2C6T,2CCH,2CCI,2CJM,2CLX,2DUV,2EXM,2FVD,2G9X,2I40,2J9M,2JGZ,2R3F,2R3G,2R3H,2R3I,2R3J,2R3K,2R3L,2R3M,2R3N,2R3O,2R3P,2R3Q,2R3R,2R64,2UUE,2UZB,2UZD,2UZE,2UZL,2UZN,2UZO,2V0D,2V22,2VTA,2VTH,2VTI,2VTJ,2VTL,2VTM,2VTN,2VTO,2VTP,2VTQ,2VTR,2VTS,2VTT,2VU3,2VV9,2W05,2W06,2W17,2W1H,2WEV,2WFY,2WHB,2WIH,2WIP,2WMA,2WMB,2WPA,2WXV,2X1N,2XMY,2XNB,3BHT,3BHU,3BHV,3DDP,3DDQ,3DOG,3EID,3EJ1,3EOC,3EZR,3EZV,3F5X,3FZ1,3IG7,3IGG,3LE6,3LFN,3LFQ,3LFS,3MY5,3NS9,3PJ8,3PXF,3PXQ,3PXR,3PXY,3PXZ,3PY0,3PY1,3QHR,3QHW,3QL8,3QQF,3QQG,3QQH,3QQJ,3QQK,3QQL,3QRT,3QRU,3QTQ,3QTR,3QTS,3QTU,3QTW,3QTX,3QTZ,3QU0,3QWJ,3QWK,3QX2,3QX4,3QXO,3QXP,3QZF,3QZG,3QZH,3QZI,3R1Q,3R1S,3R1Y,3R28,3R6X,3R71,3R73,3R7E,3R7I,3R7U,3R7V,3R7Y,3R83,3R8L,3R8M,3R8P,3R8U,3R8V,3R8Z,3R9D,3R9H,3R9N,3R9O,3RAH,3RAI,3RAK,3RAL,3RJC,3RK5,3RK7,3RK9,3RKB,3RM6,3RM7,3RMF,3RNI,3ROY,3RPO,3RPR,3RPV,3RPY,3RZB,3S00,3S0O,3S1H,3S2P,3SQQ,3SW4,3SW7,3TI1,3TIY,3TIZ,3TNW,3ULI,3UNJ,3UNK,3WBL,4ACM,4BCK,4BCM,4BCN,4BCO,4BCP,4BCQ,4BGH,4BZD,4CFM,4CFN,4CFU,4CFV,4CFW,4CFX,4D1X,4D1Z,4EK3,4EK4,4EK5,4EK6,4EK8,4EOQ,4EOR,4EOS,4ERW,4EZ3,4EZ7,4FKG,4FKI,4FKJ,4FKL,4FKO,4FKP,4FKQ,4FKR,4FKS,4FKT,4FKU,4FKV,4FKW,4FX3,4GCJ,4I3Z,4II5,4KD1,4LYN,4NJ3,4RJ3,5A14,5AND,5ANE,5ANG,5ANI,5ANJ,5ANK,5ANO,5CYI,5D1J,5FP5,5FP6,5IEV,5IEX,5IEY,5IF1,5JQ5,5JQ8,5K4J,5L2W,5LMK,5MHQ,5NEV,5OO0,5OSJ,5UQ1,5UQ2,5UQ3,6ATH,6GUB,6GUC,6GUE,6GUF,6GUH,6GUK,6GVA,6INL,6JGM,6OQI,6P3W,6Q3B,6Q3C,6Q3F,6Q48,6Q49,6Q4A,6Q4B,6Q4C,6Q4D,6Q4E,6Q4F,6Q4H,6Q4J,6Q4K,6RIJ,6SG4,7ACK,7B5L,7B5R,7B7S,7E34,7KJS,7M2F,7NVQ

> <UniProt (SwissProt) Recommended Name of Target Chain>
Cyclin-dependent kinase 2

> <UniProt (SwissProt) Entry Name of Target Chain>
CDK2_HUMAN

> <UniProt (SwissProt) Primary ID of Target Chain>
P24941

> <UniProt (SwissProt) Secondary ID(s) of Target Chain>
A8K7C6,O75100

> <UniProt (SwissProt) Alternative ID(s) of Target Chain>


> <UniProt (TrEMBL) Submitted Name of Target Chain>


> <UniProt (TrEMBL) Entry Name of Target Chain>


> <UniProt (TrEMBL) Primary ID of Target Chain>
A0A024RB77

> <UniProt (TrEMBL) Secondary ID(s) of Target Chain>


> <UniProt (TrEMBL) Alternative ID(s) of Target Chain>


$$$$
BindingDB_50444940_mol_1

Vconf v2.0 Academic SN VC001-00000579
 57 60  0  0  0  0  0  0  0  0999 V2000
   22.2990   -2.8420    0.4080 C   0  0  0  0  0  0  0  0  0  0  0
   22.5550   -4.0190   -0.3280 C   0  0  0  0  0  0  0  0  0  0  0
   23.2740   -5.0790    0.2440 C   0  0  0  0  0  0  0  0  0  0  0
   22.7670   -2.7580    1.7390 C   0  0  0  0  0  0  0  0  0  0  0
   23.4850   -3.8190    2.3390 C   0  0  0  0  0  0  0  0  0  0  0
   23.7390   -4.9810    1.5650 C   0  0  0  0  0  0  0  0  0  0  0
   24.4390   -6.0110    2.0970 N   0  0  0  0  0  0  0  0  0  0  0
   24.9320   -6.0120    3.3610 C   0  0  0  0  0  0  0  0  0  0  0
   24.7040   -4.8820    4.1700 C   0  0  0  0  0  0  0  0  0  0  0
   23.9770   -3.7820    3.6700 C   0  0  0  0  0  0  0  0  0  0  0
   21.5580   -1.7730   -0.1660 C   0  0  0  0  0  0  0  0  0  0  0
   23.7770   -2.7110    4.5160 C   0  0  0  0  0  0  0  0  0  0  0
   22.6670   -2.2330    4.6880 O   0  0  0  0  0  0  0  0  0  0  0
   24.7760   -2.2100    5.2200 O   0  0  0  0  0  0  0  0  0  0  0
   25.6490   -7.1360    3.8190 C   0  0  0  0  0  0  0  0  0  0  0
   25.9150   -8.1480    2.9620 N   0  0  0  0  0  0  0  0  0  0  0
   26.0530   -7.2080    5.0030 O   0  0  0  0  0  0  0  0  0  0  0
   26.6300   -9.3280    3.3120 C   0  0  2  0  0  0  0  0  0  0  0
   26.9610  -10.0260    2.0930 C   0  0  0  0  0  0  0  0  0  0  0
   25.7790  -10.2230    4.2470 C   0  0  0  0  0  0  0  0  0  0  0
   26.4690  -11.4710    4.6400 C   0  0  0  0  0  0  0  0  0  0  0
   25.9760  -10.4580    1.3050 O   0  0  0  0  0  0  0  0  0  0  0
   28.1350  -10.2180    1.8090 O   0  0  0  0  0  0  0  0  0  0  0
   26.2910  -11.2040    0.1290 C   0  0  0  0  0  0  0  0  0  0  0
   25.9750  -12.7250    4.2270 C   0  0  0  0  0  0  0  0  0  0  0
   26.6380  -13.9080    4.5970 C   0  0  0  0  0  0  0  0  0  0  0
   27.8000  -13.8470    5.3850 C   0  0  0  0  0  0  0  0  0  0  0
   28.2970  -12.6000    5.8030 C   0  0  0  0  0  0  0  0  0  0  0
   27.6330  -11.4180    5.4330 C   0  0  0  0  0  0  0  0  0  0  0
   28.4320  -14.9880    5.7380 O   0  0  0  0  0  0  0  0  0  0  0
   20.3670   -1.3700    0.4840 C   0  0  0  0  0  0  0  0  0  0  0
   19.5720   -0.3360   -0.0340 C   0  0  0  0  0  0  0  0  0  0  0
   19.9570    0.3180   -1.2130 C   0  0  0  0  0  0  0  0  0  0  0
   21.1390   -0.0580   -1.8680 C   0  0  0  0  0  0  0  0  0  0  0
   21.9460   -1.0940   -1.3550 C   0  0  0  0  0  0  0  0  0  0  0
   23.3840   -1.4260   -2.1980 Cl  0  0  0  0  0  0  0  0  0  0  0
   22.2150   -4.1130   -1.2870 H   0  0  0  0  0  0  0  0  0  0  0
   23.4560   -5.9220   -0.3030 H   0  0  0  0  0  0  0  0  0  0  0
   22.5840   -1.9050    2.2710 H   0  0  0  0  0  0  0  0  0  0  0
   25.0640   -4.8610    5.1270 H   0  0  0  0  0  0  0  0  0  0  0
   24.5120   -1.4680    5.8020 H   0  0  0  0  0  0  0  0  0  0  0
   25.6150   -8.0490    2.0440 H   0  0  0  0  0  0  0  0  0  0  0
   27.5560   -9.0440    3.8190 H   0  0  0  0  0  0  0  0  0  0  0
   25.5370   -9.6690    5.1540 H   0  0  0  0  0  0  0  0  0  0  0
   24.8400  -10.4550    3.7390 H   0  0  0  0  0  0  0  0  0  0  0
   25.3660  -11.4710   -0.3810 H   0  0  0  0  0  0  0  0  0  0  0
   26.9080  -10.6030   -0.5410 H   0  0  0  0  0  0  0  0  0  0  0
   26.8270  -12.1150    0.3980 H   0  0  0  0  0  0  0  0  0  0  0
   25.1350  -12.7800    3.6510 H   0  0  0  0  0  0  0  0  0  0  0
   26.2760  -14.8120    4.2920 H   0  0  0  0  0  0  0  0  0  0  0
   29.1390  -12.5510    6.3770 H   0  0  0  0  0  0  0  0  0  0  0
   28.0000  -10.5170    5.7410 H   0  0  0  0  0  0  0  0  0  0  0
   29.2330  -14.8580    6.2870 H   0  0  0  0  0  0  0  0  0  0  0
   20.0620   -1.8370    1.3400 H   0  0  0  0  0  0  0  0  0  0  0
   18.7140   -0.0620    0.4450 H   0  0  0  0  0  0  0  0  0  0  0
   19.3800    1.0700   -1.5910 H   0  0  0  0  0  0  0  0  0  0  0
   21.4070    0.4370   -2.7200 H   0  0  0  0  0  0  0  0  0  0  0
  1  2  2  0  0  0  0
  1  4  1  0  0  0  0
  1 11  1  0  0  0  0
  2  3  1  0  0  0  0
  2 37  1  0  0  0  0
  3  6  2  0  0  0  0
  3 38  1  0  0  0  0
  4  5  2  0  0  0  0
  4 39  1  0  0  0  0
  5  6  1  0  0  0  0
  5 10  1  0  0  0  0
  6  7  1  0  0  0  0
  7  8  2  0  0  0  0
  8  9  1  0  0  0  0
  8 15  1  0  0  0  0
  9 10  2  0  0  0  0
  9 40  1  0  0  0  0
 10 12  1  0  0  0  0
 11 31  2  0  0  0  0
 11 35  1  0  0  0  0
 12 13  2  0  0  0  0
 12 14  1  0  0  0  0
 14 41  1  0  0  0  0
 15 16  1  0  0  0  0
 15 17  2  0  0  0  0
 18 16  1  1  0  0  0
 16 42  1  0  0  0  0
 18 19  1  0  0  0  0
 18 20  1  0  0  0  0
 18 43  1  0  0  0  0
 19 22  1  0  0  0  0
 19 23  2  0  0  0  0
 20 21  1  0  0  0  0
 20 44  1  0  0  0  0
 20 45  1  0  0  0  0
 21 25  2  0  0  0  0
 21 29  1  0  0  0  0
 22 24  1  0  0  0  0
 24 46  1  0  0  0  0
 24 47  1  0  0  0  0
 24 48  1  0  0  0  0
 25 26  1  0  0  0  0
 25 49  1  0  0  0  0
 26 27  2  0  0  0  0
 26 50  1  0  0  0  0
 27 28  1  0  0  0  0
 27 30  1  0  0  0  0
 28 29  2  0  0  0  0
 28 51  1  0  0  0  0
 29 52  1  0  0  0  0
 30 53  1  0  0  0  0
 31 32  1  0  0  0  0
 31 54  1  0  0  0  0
 32 33  2  0  0  0  0
 32 55  1  0  0  0  0
 33 34  1  0  0  0  0
 33 56  1  0  0  0  0
 34 35  2  0  0  0  0
 34 57  1  0  0  0  0
 35 36  1  0  0  0  0
M  END
> <From>
www.bindingDB.org

> <BindingDB Reactant_set_id>
50077217

> <Ligand InChI>
InChI=1S/C27H21ClN2O6/c1-36-27(35)24(12-15-6-9-17(31)10-7-15)30-25(32)23-14-20(26(33)34)19-13-16(8-11-22(19)29-23)18-4-2-3-5-21(18)28/h2-11,13-14,24,31H,12H2,1H3,(H,30,32)(H,33,34)/t24-/m0/s1

> <Ligand InChI Key>
KRJBPRIWWMVZOX-DEOSSOPVSA-N

> <BindingDB MonomerID>
50444940

> <BindingDB Ligand Name>
CHEMBL3099756

> <Target Name Assigned by Curator or DataSource>
Cyclin-dependent kinase 2

> <Target Source Organism According to Curator or DataSource>
Homo sapiens

> <Ki (nM)>
 700

> <IC50 (nM)>


> <Kd (nM)>


> <EC50 (nM)>


> <kon (M-1-s-1)>


> <koff (s-1)>


> <pH>


> <Temp C>


> <Curation/DataSource>
ChEMBL

> <Article DOI>
10.1016/j.bmcl.2013.11.041

> <PMID>
24332088

> <PubChem AID>


> <Patent Number>


> <Authors>
Deng, Y; Shipps, GW; Zhao, L; Siddiqui, MA; Popovici-Muller, J; Curran, PJ; Duca, JS; Hruza, AW; Fischmann, TO; Madison, VS; Zhang, R; McNemar, CW; Mayhood, TW; Syto, R; Annis, A; Kirschmeier, P; Lees, EM; Parry, DA; Windsor, WT

> <Institution>
Merck Research Laboratories

> <Link to Ligand in BindingDB>
http://www.bindingdb.org/bind/chemsearch/marvin/MolStructure.jsp?monomerid=50444940

> <Link to Ligand-Target Pair in BindingDB>
http://www.bindingdb.org/jsp/dbsearch/PrimarySearch_ki.jsp?energyterm=kJ/mole&tag=pol&polymerid=796&target=Cyclin-dependent+kinase+2&column=ki&startPg=0&Increment=50&submit=Search

> <Link to Ligand-Target Pair in BindingDB>
http://www.bindingdb.org/jsp/dbsearch/PrimarySearch_ki.jsp?energyterm=kJ/mole&tag=r21&monomerid=50444940&enzyme=Cyclin-dependent+kinase+2&column=ki&startPg=0&Increment=50&submit=Search

> <Ligand HET ID in PDB>


> <PDB ID(s) for Ligand-Target Complex>


> <PubChem CID>
57602135

> <PubChem SID>
194942836

> <ChEBI ID of Ligand>


> <ChEMBL ID of Ligand>
CHEMBL3099756

> <DrugBank ID of Ligand>


> <IUPHAR_GRAC ID of Ligand>


> <KEGG ID of Ligand>


> <ZINC ID of Ligand>


> <Number of Protein Chains in Target (bigger than 1 implies a multichain complex)>
1

> <BindingDB Target Chain Sequence>
MENFQKVEKIGEGTYGVVYKARNKLTGEVVALKKIRLDTETEGVPSTAIREISLLKELNHPNIVKLLDVIHTENKLYLVFEFLHQDLKKFMDASALTGIPLPLIKSYLFQLLQGLAFCHSHRVLHRDLKPQNLLINTEGAIKLADFGLARAFGVPVRTYTHEVVTLWYRAPEILLGCKYYSTAVDIWSLGCIFAEMVTRRALFPGDSEIDQLFRIFRTLGTPDEVVWPGVTSMPDYKPSFPKWARQDFSKVVPPLDEDGRSLLSQMLHYDPNKRISAKAALAHPFFQDVTKPVPHLRL

> <PDB ID(s) of Target Chain>
1CKP,1DI8,1DM2,1E1V,1E1X,1E9H,1F5Q,1FIN,1FQ1,1FVT,1FVV,1G5S,1GIH,1GY3,1GZ8,1H00,1H01,1H07,1H08,1H0V,1H0W,1H1P,1H1Q,1H1R,1H1S,1H24,1H25,1H26,1H27,1H28,1HCK,1HCL,1JST,1JSU,1JSV,1JVP,1KE5,1KE6,1KE7,1KE8,1KE9,1OGU,1OI9,1OIQ,1OIR,1OIU,1OIY,1OKV,1OKW,1OL1,1OL2,1P2A,1P5E,1PF8,1PKD,1PW2,1PXI,1PXJ,1PXK,1PXL,1PXM,1PXN,1PXO,1PXP,1PYE,1QMZ,1R78,1URC,1URW,1V1K,1VYW,1VYZ,1W0X,1W8C,1W98,1WCC,1Y8Y,1Y91,1YKR,2A0C,2A4L,2B52,2B53,2B54,2B55,2BHE,2BHH,2BKZ,2BPM,2BTR,2BTS,2C4G,2C5N,2C5O,2C5V,2C5X,2C5Y,2C68,2C69,2C6I,2C6K,2C6L,2C6M,2C6O,2C6T,2CCH,2CCI,2CJM,2CLX,2DUV,2EXM,2FVD,2G9X,2I40,2J9M,2JGZ,2R3F,2R3G,2R3H,2R3I,2R3J,2R3K,2R3L,2R3M,2R3N,2R3O,2R3P,2R3Q,2R3R,2R64,2UUE,2UZB,2UZD,2UZE,2UZL,2UZN,2UZO,2V0D,2V22,2VTA,2VTH,2VTI,2VTJ,2VTL,2VTM,2VTN,2VTO,2VTP,2VTQ,2VTR,2VTS,2VTT,2VU3,2VV9,2W05,2W06,2W17,2W1H,2WEV,2WFY,2WHB,2WIH,2WIP,2WMA,2WMB,2WPA,2WXV,2X1N,2XMY,2XNB,3BHT,3BHU,3BHV,3DDP,3DDQ,3DOG,3EID,3EJ1,3EOC,3EZR,3EZV,3F5X,3FZ1,3IG7,3IGG,3LE6,3LFN,3LFQ,3LFS,3MY5,3NS9,3PJ8,3PXF,3PXQ,3PXR,3PXY,3PXZ,3PY0,3PY1,3QHR,3QHW,3QL8,3QQF,3QQG,3QQH,3QQJ,3QQK,3QQL,3QRT,3QRU,3QTQ,3QTR,3QTS,3QTU,3QTW,3QTX,3QTZ,3QU0,3QWJ,3QWK,3QX2,3QX4,3QXO,3QXP,3QZF,3QZG,3QZH,3QZI,3R1Q,3R1S,3R1Y,3R28,3R6X,3R71,3R73,3R7E,3R7I,3R7U,3R7V,3R7Y,3R83,3R8L,3R8M,3R8P,3R8U,3R8V,3R8Z,3R9D,3R9H,3R9N,3R9O,3RAH,3RAI,3RAK,3RAL,3RJC,3RK5,3RK7,3RK9,3RKB,3RM6,3RM7,3RMF,3RNI,3ROY,3RPO,3RPR,3RPV,3RPY,3RZB,3S00,3S0O,3S1H,3S2P,3SQQ,3SW4,3SW7,3TI1,3TIY,3TIZ,3TNW,3ULI,3UNJ,3UNK,3WBL,4ACM,4BCK,4BCM,4BCN,4BCO,4BCP,4BCQ,4BGH,4BZD,4CFM,4CFN,4CFU,4CFV,4CFW,4CFX,4D1X,4D1Z,4EK3,4EK4,4EK5,4EK6,4EK8,4EOQ,4EOR,4EOS,4ERW,4EZ3,4EZ7,4FKG,4FKI,4FKJ,4FKL,4FKO,4FKP,4FKQ,4FKR,4FKS,4FKT,4FKU,4FKV,4FKW,4FX3,4GCJ,4I3Z,4II5,4KD1,4LYN,4NJ3,4RJ3,5A14,5AND,5ANE,5ANG,5ANI,5ANJ,5ANK,5ANO,5CYI,5D1J,5FP5,5FP6,5IEV,5IEX,5IEY,5IF1,5JQ5,5JQ8,5K4J,5L2W,5LMK,5MHQ,5NEV,5OO0,5OSJ,5UQ1,5UQ2,5UQ3,6ATH,6GUB,6GUC,6GUE,6GUF,6GUH,6GUK,6GVA,6INL,6JGM,6OQI,6P3W,6Q3B,6Q3C,6Q3F,6Q48,6Q49,6Q4A,6Q4B,6Q4C,6Q4D,6Q4E,6Q4F,6Q4H,6Q4J,6Q4K,6RIJ,6SG4,7ACK,7B5L,7B5R,7B7S,7E34,7KJS,7M2F,7NVQ

> <UniProt (SwissProt) Recommended Name of Target Chain>
Cyclin-dependent kinase 2

> <UniProt (SwissProt) Entry Name of Target Chain>
CDK2_HUMAN

> <UniProt (SwissProt) Primary ID of Target Chain>
P24941

> <UniProt (SwissProt) Secondary ID(s) of Target Chain>
A8K7C6,O75100

> <UniProt (SwissProt) Alternative ID(s) of Target Chain>


> <UniProt (TrEMBL) Submitted Name of Target Chain>


> <UniProt (TrEMBL) Entry Name of Target Chain>


> <UniProt (TrEMBL) Primary ID of Target Chain>
A0A024RB77

> <UniProt (TrEMBL) Secondary ID(s) of Target Chain>


> <UniProt (TrEMBL) Alternative ID(s) of Target Chain>


$$$$
BindingDB_50444942_mol_1

Vconf v2.0 Academic SN VC001-00000579
 54 57  0  0  0  0  0  0  0  0999 V2000
    4.0600   -1.8610    0.6810 C   0  0  0  0  0  0  0  0  0  0  0
    4.2750   -2.7320   -0.4060 C   0  0  0  0  0  0  0  0  0  0  0
    3.6360   -3.9770   -0.4650 C   0  0  0  0  0  0  0  0  0  0  0
    3.1790   -2.2770    1.7080 C   0  0  0  0  0  0  0  0  0  0  0
    2.5130   -3.5290    1.6820 C   0  0  0  0  0  0  0  0  0  0  0
    2.7690   -4.3710    0.5650 C   0  0  0  0  0  0  0  0  0  0  0
    2.1770   -5.5830    0.4670 N   0  0  0  0  0  0  0  0  0  0  0
    1.3220   -6.0750    1.3940 C   0  0  0  0  0  0  0  0  0  0  0
    1.0310   -5.2830    2.5180 C   0  0  0  0  0  0  0  0  0  0  0
    1.6140   -4.0030    2.6850 C   0  0  0  0  0  0  0  0  0  0  0
    4.7310   -0.6100    0.7020 C   0  0  0  0  0  0  0  0  0  0  0
    4.6340    0.3660    1.6980 C   0  0  0  0  0  0  0  0  0  0  0
    5.4140    1.4830    1.4410 C   0  0  0  0  0  0  0  0  0  0  0
    6.1080    1.3630    0.2480 C   0  0  0  0  0  0  0  0  0  0  0
    5.8070   -0.1300   -0.5740 S   0  0  0  0  0  0  0  0  0  0  0
    1.2400   -3.2910    3.8630 C   0  0  0  0  0  0  0  0  0  0  0
    1.6560   -2.1500    4.1570 O   0  0  0  0  0  0  0  0  0  0  0
    0.3810   -3.8200    4.7650 O   0  0  0  0  0  0  0  0  0  0  0
    0.7500   -7.3490    1.2000 C   0  0  0  0  0  0  0  0  0  0  0
    1.0630   -8.0550    0.0890 N   0  0  0  0  0  0  0  0  0  0  0
   -0.0550   -7.8270    2.0320 O   0  0  0  0  0  0  0  0  0  0  0
    0.5110   -9.3280   -0.2430 C   0  0  2  0  0  0  0  0  0  0  0
    1.5870  -10.2690   -0.4240 C   0  0  0  0  0  0  0  0  0  0  0
   -0.3160   -9.2130   -1.5440 C   0  0  0  0  0  0  0  0  0  0  0
   -1.4340   -8.2540   -1.4180 C   0  0  0  0  0  0  0  0  0  0  0
    2.5160  -10.0220   -1.3480 O   0  0  0  0  0  0  0  0  0  0  0
    1.6290  -11.2780    0.2660 O   0  0  0  0  0  0  0  0  0  0  0
    3.5900  -10.9460   -1.5330 C   0  0  0  0  0  0  0  0  0  0  0
   -2.4960   -8.5120   -0.5260 C   0  0  0  0  0  0  0  0  0  0  0
   -3.5490   -7.5930   -0.3880 C   0  0  0  0  0  0  0  0  0  0  0
   -3.5520   -6.4070   -1.1400 C   0  0  0  0  0  0  0  0  0  0  0
   -2.5000   -6.1430   -2.0350 C   0  0  0  0  0  0  0  0  0  0  0
   -1.4470   -7.0630   -2.1730 C   0  0  0  0  0  0  0  0  0  0  0
   -4.5640   -5.5230   -0.9970 O   0  0  0  0  0  0  0  0  0  0  0
    4.9010   -2.4720   -1.1700 H   0  0  0  0  0  0  0  0  0  0  0
    3.8040   -4.5960   -1.2590 H   0  0  0  0  0  0  0  0  0  0  0
    3.0290   -1.6460    2.4880 H   0  0  0  0  0  0  0  0  0  0  0
    0.3830   -5.6480    3.2200 H   0  0  0  0  0  0  0  0  0  0  0
    4.0550    0.2820    2.5340 H   0  0  0  0  0  0  0  0  0  0  0
    5.4710    2.2940    2.0570 H   0  0  0  0  0  0  0  0  0  0  0
    6.7360    2.0840   -0.1100 H   0  0  0  0  0  0  0  0  0  0  0
    0.2060   -3.2330    5.5290 H   0  0  0  0  0  0  0  0  0  0  0
    1.6890   -7.6540   -0.5350 H   0  0  0  0  0  0  0  0  0  0  0
   -0.1390   -9.6980    0.5540 H   0  0  0  0  0  0  0  0  0  0  0
    0.3500   -8.9090   -2.3550 H   0  0  0  0  0  0  0  0  0  0  0
   -0.7230  -10.1950   -1.7950 H   0  0  0  0  0  0  0  0  0  0  0
    4.2460  -10.5770   -2.3210 H   0  0  0  0  0  0  0  0  0  0  0
    4.1610  -11.0440   -0.6090 H   0  0  0  0  0  0  0  0  0  0  0
    3.1970  -11.9210   -1.8230 H   0  0  0  0  0  0  0  0  0  0  0
   -2.4990   -9.3680    0.0290 H   0  0  0  0  0  0  0  0  0  0  0
   -4.3120   -7.7860    0.2630 H   0  0  0  0  0  0  0  0  0  0  0
   -2.4980   -5.2830   -2.5830 H   0  0  0  0  0  0  0  0  0  0  0
   -0.6850   -6.8600   -2.8200 H   0  0  0  0  0  0  0  0  0  0  0
   -4.4840   -4.7170   -1.5470 H   0  0  0  0  0  0  0  0  0  0  0
  1  2  2  0  0  0  0
  1  4  1  0  0  0  0
  1 11  1  0  0  0  0
  2  3  1  0  0  0  0
  2 35  1  0  0  0  0
  3  6  2  0  0  0  0
  3 36  1  0  0  0  0
  4  5  2  0  0  0  0
  4 37  1  0  0  0  0
  5  6  1  0  0  0  0
  5 10  1  0  0  0  0
  6  7  1  0  0  0  0
  7  8  2  0  0  0  0
  8  9  1  0  0  0  0
  8 19  1  0  0  0  0
  9 10  2  0  0  0  0
  9 38  1  0  0  0  0
 10 16  1  0  0  0  0
 11 12  2  0  0  0  0
 11 15  1  0  0  0  0
 12 13  1  0  0  0  0
 12 39  1  0  0  0  0
 13 14  2  0  0  0  0
 13 40  1  0  0  0  0
 14 15  1  0  0  0  0
 14 41  1  0  0  0  0
 16 17  2  0  0  0  0
 16 18  1  0  0  0  0
 18 42  1  0  0  0  0
 19 20  1  0  0  0  0
 19 21  2  0  0  0  0
 22 20  1  1  0  0  0
 20 43  1  0  0  0  0
 22 23  1  0  0  0  0
 22 24  1  0  0  0  0
 22 44  1  0  0  0  0
 23 26  1  0  0  0  0
 23 27  2  0  0  0  0
 24 25  1  0  0  0  0
 24 45  1  0  0  0  0
 24 46  1  0  0  0  0
 25 29  2  0  0  0  0
 25 33  1  0  0  0  0
 26 28  1  0  0  0  0
 28 47  1  0  0  0  0
 28 48  1  0  0  0  0
 28 49  1  0  0  0  0
 29 30  1  0  0  0  0
 29 50  1  0  0  0  0
 30 31  2  0  0  0  0
 30 51  1  0  0  0  0
 31 32  1  0  0  0  0
 31 34  1  0  0  0  0
 32 33  2  0  0  0  0
 32 52  1  0  0  0  0
 33 53  1  0  0  0  0
 34 54  1  0  0  0  0
M  END
> <From>
www.bindingDB.org

> <BindingDB Reactant_set_id>
50077214

> <Ligand InChI>
InChI=1S/C25H20N2O6S/c1-33-25(32)21(11-14-4-7-16(28)8-5-14)27-23(29)20-13-18(24(30)31)17-12-15(6-9-19(17)26-20)22-3-2-10-34-22/h2-10,12-13,21,28H,11H2,1H3,(H,27,29)(H,30,31)/t21-/m0/s1

> <Ligand InChI Key>
CZUZYJLPSLQMKQ-NRFANRHFSA-N

> <BindingDB MonomerID>
50444942

> <BindingDB Ligand Name>
CHEMBL3099754

> <Target Name Assigned by Curator or DataSource>
Cyclin-dependent kinase 2

> <Target Source Organism According to Curator or DataSource>
Homo sapiens

> <Ki (nM)>
 900

> <IC50 (nM)>


> <Kd (nM)>


> <EC50 (nM)>


> <kon (M-1-s-1)>


> <koff (s-1)>


> <pH>


> <Temp C>


> <Curation/DataSource>
ChEMBL

> <Article DOI>
10.1016/j.bmcl.2013.11.041

> <PMID>
24332088

> <PubChem AID>


> <Patent Number>


> <Authors>
Deng, Y; Shipps, GW; Zhao, L; Siddiqui, MA; Popovici-Muller, J; Curran, PJ; Duca, JS; Hruza, AW; Fischmann, TO; Madison, VS; Zhang, R; McNemar, CW; Mayhood, TW; Syto, R; Annis, A; Kirschmeier, P; Lees, EM; Parry, DA; Windsor, WT

> <Institution>
Merck Research Laboratories

> <Link to Ligand in BindingDB>
http://www.bindingdb.org/bind/chemsearch/marvin/MolStructure.jsp?monomerid=50444942

> <Link to Ligand-Target Pair in BindingDB>
http://www.bindingdb.org/jsp/dbsearch/PrimarySearch_ki.jsp?energyterm=kJ/mole&tag=pol&polymerid=796&target=Cyclin-dependent+kinase+2&column=ki&startPg=0&Increment=50&submit=Search

> <Link to Ligand-Target Pair in BindingDB>
http://www.bindingdb.org/jsp/dbsearch/PrimarySearch_ki.jsp?energyterm=kJ/mole&tag=r21&monomerid=50444942&enzyme=Cyclin-dependent+kinase+2&column=ki&startPg=0&Increment=50&submit=Search

> <Ligand HET ID in PDB>


> <PDB ID(s) for Ligand-Target Complex>


> <PubChem CID>
25026574

> <PubChem SID>
194942838

> <ChEBI ID of Ligand>


> <ChEMBL ID of Ligand>
CHEMBL3099754

> <DrugBank ID of Ligand>


> <IUPHAR_GRAC ID of Ligand>


> <KEGG ID of Ligand>


> <ZINC ID of Ligand>


> <Number of Protein Chains in Target (bigger than 1 implies a multichain complex)>
1

> <BindingDB Target Chain Sequence>
MENFQKVEKIGEGTYGVVYKARNKLTGEVVALKKIRLDTETEGVPSTAIREISLLKELNHPNIVKLLDVIHTENKLYLVFEFLHQDLKKFMDASALTGIPLPLIKSYLFQLLQGLAFCHSHRVLHRDLKPQNLLINTEGAIKLADFGLARAFGVPVRTYTHEVVTLWYRAPEILLGCKYYSTAVDIWSLGCIFAEMVTRRALFPGDSEIDQLFRIFRTLGTPDEVVWPGVTSMPDYKPSFPKWARQDFSKVVPPLDEDGRSLLSQMLHYDPNKRISAKAALAHPFFQDVTKPVPHLRL

> <PDB ID(s) of Target Chain>
1CKP,1DI8,1DM2,1E1V,1E1X,1E9H,1F5Q,1FIN,1FQ1,1FVT,1FVV,1G5S,1GIH,1GY3,1GZ8,1H00,1H01,1H07,1H08,1H0V,1H0W,1H1P,1H1Q,1H1R,1H1S,1H24,1H25,1H26,1H27,1H28,1HCK,1HCL,1JST,1JSU,1JSV,1JVP,1KE5,1KE6,1KE7,1KE8,1KE9,1OGU,1OI9,1OIQ,1OIR,1OIU,1OIY,1OKV,1OKW,1OL1,1OL2,1P2A,1P5E,1PF8,1PKD,1PW2,1PXI,1PXJ,1PXK,1PXL,1PXM,1PXN,1PXO,1PXP,1PYE,1QMZ,1R78,1URC,1URW,1V1K,1VYW,1VYZ,1W0X,1W8C,1W98,1WCC,1Y8Y,1Y91,1YKR,2A0C,2A4L,2B52,2B53,2B54,2B55,2BHE,2BHH,2BKZ,2BPM,2BTR,2BTS,2C4G,2C5N,2C5O,2C5V,2C5X,2C5Y,2C68,2C69,2C6I,2C6K,2C6L,2C6M,2C6O,2C6T,2CCH,2CCI,2CJM,2CLX,2DUV,2EXM,2FVD,2G9X,2I40,2J9M,2JGZ,2R3F,2R3G,2R3H,2R3I,2R3J,2R3K,2R3L,2R3M,2R3N,2R3O,2R3P,2R3Q,2R3R,2R64,2UUE,2UZB,2UZD,2UZE,2UZL,2UZN,2UZO,2V0D,2V22,2VTA,2VTH,2VTI,2VTJ,2VTL,2VTM,2VTN,2VTO,2VTP,2VTQ,2VTR,2VTS,2VTT,2VU3,2VV9,2W05,2W06,2W17,2W1H,2WEV,2WFY,2WHB,2WIH,2WIP,2WMA,2WMB,2WPA,2WXV,2X1N,2XMY,2XNB,3BHT,3BHU,3BHV,3DDP,3DDQ,3DOG,3EID,3EJ1,3EOC,3EZR,3EZV,3F5X,3FZ1,3IG7,3IGG,3LE6,3LFN,3LFQ,3LFS,3MY5,3NS9,3PJ8,3PXF,3PXQ,3PXR,3PXY,3PXZ,3PY0,3PY1,3QHR,3QHW,3QL8,3QQF,3QQG,3QQH,3QQJ,3QQK,3QQL,3QRT,3QRU,3QTQ,3QTR,3QTS,3QTU,3QTW,3QTX,3QTZ,3QU0,3QWJ,3QWK,3QX2,3QX4,3QXO,3QXP,3QZF,3QZG,3QZH,3QZI,3R1Q,3R1S,3R1Y,3R28,3R6X,3R71,3R73,3R7E,3R7I,3R7U,3R7V,3R7Y,3R83,3R8L,3R8M,3R8P,3R8U,3R8V,3R8Z,3R9D,3R9H,3R9N,3R9O,3RAH,3RAI,3RAK,3RAL,3RJC,3RK5,3RK7,3RK9,3RKB,3RM6,3RM7,3RMF,3RNI,3ROY,3RPO,3RPR,3RPV,3RPY,3RZB,3S00,3S0O,3S1H,3S2P,3SQQ,3SW4,3SW7,3TI1,3TIY,3TIZ,3TNW,3ULI,3UNJ,3UNK,3WBL,4ACM,4BCK,4BCM,4BCN,4BCO,4BCP,4BCQ,4BGH,4BZD,4CFM,4CFN,4CFU,4CFV,4CFW,4CFX,4D1X,4D1Z,4EK3,4EK4,4EK5,4EK6,4EK8,4EOQ,4EOR,4EOS,4ERW,4EZ3,4EZ7,4FKG,4FKI,4FKJ,4FKL,4FKO,4FKP,4FKQ,4FKR,4FKS,4FKT,4FKU,4FKV,4FKW,4FX3,4GCJ,4I3Z,4II5,4KD1,4LYN,4NJ3,4RJ3,5A14,5AND,5ANE,5ANG,5ANI,5ANJ,5ANK,5ANO,5CYI,5D1J,5FP5,5FP6,5IEV,5IEX,5IEY,5IF1,5JQ5,5JQ8,5K4J,5L2W,5LMK,5MHQ,5NEV,5OO0,5OSJ,5UQ1,5UQ2,5UQ3,6ATH,6GUB,6GUC,6GUE,6GUF,6GUH,6GUK,6GVA,6INL,6JGM,6OQI,6P3W,6Q3B,6Q3C,6Q3F,6Q48,6Q49,6Q4A,6Q4B,6Q4C,6Q4D,6Q4E,6Q4F,6Q4H,6Q4J,6Q4K,6RIJ,6SG4,7ACK,7B5L,7B5R,7B7S,7E34,7KJS,7M2F,7NVQ

> <UniProt (SwissProt) Recommended Name of Target Chain>
Cyclin-dependent kinase 2

> <UniProt (SwissProt) Entry Name of Target Chain>
CDK2_HUMAN

> <UniProt (SwissProt) Primary ID of Target Chain>
P24941

> <UniProt (SwissProt) Secondary ID(s) of Target Chain>
A8K7C6,O75100

> <UniProt (SwissProt) Alternative ID(s) of Target Chain>


> <UniProt (TrEMBL) Submitted Name of Target Chain>


> <UniProt (TrEMBL) Entry Name of Target Chain>


> <UniProt (TrEMBL) Primary ID of Target Chain>
A0A024RB77

> <UniProt (TrEMBL) Secondary ID(s) of Target Chain>


> <UniProt (TrEMBL) Alternative ID(s) of Target Chain>


$$$$
BindingDB_50444939_mol_1

Vconf v2.0 Academic SN VC001-00000579
 57 60  0  0  0  0  0  0  0  0999 V2000
    3.8550   -9.5170    0.4600 C   0  0  0  0  0  0  0  0  0  0  0
    3.8780  -10.7430   -0.2460 C   0  0  0  0  0  0  0  0  0  0  0
    4.1270  -11.9570    0.4120 C   0  0  0  0  0  0  0  0  0  0  0
    4.0860   -9.5550    1.8560 C   0  0  0  0  0  0  0  0  0  0  0
    4.3300  -10.7660    2.5450 C   0  0  0  0  0  0  0  0  0  0  0
    4.3560  -11.9700    1.7960 C   0  0  0  0  0  0  0  0  0  0  0
    4.6100  -13.1490    2.4130 N   0  0  0  0  0  0  0  0  0  0  0
    4.8530  -13.2650    3.7430 C   0  0  0  0  0  0  0  0  0  0  0
    4.8360  -12.0980    4.5310 C   0  0  0  0  0  0  0  0  0  0  0
    4.5680  -10.8440    3.9420 C   0  0  0  0  0  0  0  0  0  0  0
    3.6090   -8.2820   -0.2160 C   0  0  0  0  0  0  0  0  0  0  0
    4.5450   -9.7420    4.7720 C   0  0  0  0  0  0  0  0  0  0  0
    3.6200   -8.9460    4.7500 O   0  0  0  0  0  0  0  0  0  0  0
    5.4950   -9.5520    5.6710 O   0  0  0  0  0  0  0  0  0  0  0
    5.1120  -14.5390    4.2890 C   0  0  0  0  0  0  0  0  0  0  0
    5.1090  -15.6200    3.4750 N   0  0  0  0  0  0  0  0  0  0  0
    5.3330  -14.6830    5.5140 O   0  0  0  0  0  0  0  0  0  0  0
    5.3420  -16.9610    3.9050 C   0  0  2  0  0  0  0  0  0  0  0
    6.4460  -17.5020    3.1520 C   0  0  0  0  0  0  0  0  0  0  0
    4.0770  -17.8160    3.6670 C   0  0  0  0  0  0  0  0  0  0  0
    2.9170  -17.3400    4.4500 C   0  0  0  0  0  0  0  0  0  0  0
    6.3740  -17.5250    1.8210 O   0  0  0  0  0  0  0  0  0  0  0
    7.4280  -17.9280    3.7440 O   0  0  0  0  0  0  0  0  0  0  0
    7.4710  -18.0370    1.0630 C   0  0  0  0  0  0  0  0  0  0  0
    2.9410  -17.3920    5.8580 C   0  0  0  0  0  0  0  0  0  0  0
    1.8440  -16.9340    6.6080 C   0  0  0  0  0  0  0  0  0  0  0
    0.7110  -16.4210    5.9550 C   0  0  0  0  0  0  0  0  0  0  0
    0.6770  -16.3670    4.5510 C   0  0  0  0  0  0  0  0  0  0  0
    1.7750  -16.8260    3.8020 C   0  0  0  0  0  0  0  0  0  0  0
   -0.3400  -15.9820    6.6810 O   0  0  0  0  0  0  0  0  0  0  0
    2.8910   -7.2340    0.4080 C   0  0  0  0  0  0  0  0  0  0  0
    2.6480   -6.0190   -0.2550 C   0  0  0  0  0  0  0  0  0  0  0
    3.1210   -5.8220   -1.5640 C   0  0  0  0  0  0  0  0  0  0  0
    3.8370   -6.8490   -2.2020 C   0  0  0  0  0  0  0  0  0  0  0
    4.0770   -8.0620   -1.5350 C   0  0  0  0  0  0  0  0  0  0  0
    2.8290   -4.3620   -2.3660 Cl  0  0  0  0  0  0  0  0  0  0  0
    3.7050  -10.7650   -1.2520 H   0  0  0  0  0  0  0  0  0  0  0
    4.1420  -12.8280   -0.1180 H   0  0  0  0  0  0  0  0  0  0  0
    4.0930   -8.6780    2.3790 H   0  0  0  0  0  0  0  0  0  0  0
    5.0130  -12.1600    5.5360 H   0  0  0  0  0  0  0  0  0  0  0
    5.3570   -8.7550    6.2230 H   0  0  0  0  0  0  0  0  0  0  0
    4.9260  -15.4710    2.5340 H   0  0  0  0  0  0  0  0  0  0  0
    5.5990  -16.9990    4.9660 H   0  0  0  0  0  0  0  0  0  0  0
    3.8420  -17.8020    2.6000 H   0  0  0  0  0  0  0  0  0  0  0
    4.2860  -18.8500    3.9500 H   0  0  0  0  0  0  0  0  0  0  0
    7.2370  -17.9630    0.0010 H   0  0  0  0  0  0  0  0  0  0  0
    8.3720  -17.4570    1.2710 H   0  0  0  0  0  0  0  0  0  0  0
    7.6460  -19.0830    1.3180 H   0  0  0  0  0  0  0  0  0  0  0
    3.7610  -17.7620    6.3420 H   0  0  0  0  0  0  0  0  0  0  0
    1.8730  -16.9730    7.6270 H   0  0  0  0  0  0  0  0  0  0  0
   -0.1440  -15.9950    4.0720 H   0  0  0  0  0  0  0  0  0  0  0
    1.7420  -16.7800    2.7830 H   0  0  0  0  0  0  0  0  0  0  0
   -1.0890  -15.6380    6.1510 H   0  0  0  0  0  0  0  0  0  0  0
    2.5240   -7.3500    1.3540 H   0  0  0  0  0  0  0  0  0  0  0
    2.1240   -5.2830    0.2230 H   0  0  0  0  0  0  0  0  0  0  0
    4.1900   -6.7220   -3.1520 H   0  0  0  0  0  0  0  0  0  0  0
    4.6110   -8.7840   -2.0210 H   0  0  0  0  0  0  0  0  0  0  0
  1  2  2  0  0  0  0
  1  4  1  0  0  0  0
  1 11  1  0  0  0  0
  2  3  1  0  0  0  0
  2 37  1  0  0  0  0
  3  6  2  0  0  0  0
  3 38  1  0  0  0  0
  4  5  2  0  0  0  0
  4 39  1  0  0  0  0
  5  6  1  0  0  0  0
  5 10  1  0  0  0  0
  6  7  1  0  0  0  0
  7  8  2  0  0  0  0
  8  9  1  0  0  0  0
  8 15  1  0  0  0  0
  9 10  2  0  0  0  0
  9 40  1  0  0  0  0
 10 12  1  0  0  0  0
 11 31  2  0  0  0  0
 11 35  1  0  0  0  0
 12 13  2  0  0  0  0
 12 14  1  0  0  0  0
 14 41  1  0  0  0  0
 15 16  1  0  0  0  0
 15 17  2  0  0  0  0
 18 16  1  1  0  0  0
 16 42  1  0  0  0  0
 18 19  1  0  0  0  0
 18 20  1  0  0  0  0
 18 43  1  0  0  0  0
 19 22  1  0  0  0  0
 19 23  2  0  0  0  0
 20 21  1  0  0  0  0
 20 44  1  0  0  0  0
 20 45  1  0  0  0  0
 21 25  2  0  0  0  0
 21 29  1  0  0  0  0
 22 24  1  0  0  0  0
 24 46  1  0  0  0  0
 24 47  1  0  0  0  0
 24 48  1  0  0  0  0
 25 26  1  0  0  0  0
 25 49  1  0  0  0  0
 26 27  2  0  0  0  0
 26 50  1  0  0  0  0
 27 28  1  0  0  0  0
 27 30  1  0  0  0  0
 28 29  2  0  0  0  0
 28 51  1  0  0  0  0
 29 52  1  0  0  0  0
 30 53  1  0  0  0  0
 31 32  1  0  0  0  0
 31 54  1  0  0  0  0
 32 33  2  0  0  0  0
 32 55  1  0  0  0  0
 33 34  1  0  0  0  0
 33 36  1  0  0  0  0
 34 35  2  0  0  0  0
 34 56  1  0  0  0  0
 35 57  1  0  0  0  0
M  END
> <From>
www.bindingDB.org

> <BindingDB Reactant_set_id>
50077219

> <Ligand InChI>
InChI=1S/C27H21ClN2O6/c1-36-27(35)24(12-15-2-9-19(31)10-3-15)30-25(32)23-14-21(26(33)34)20-13-17(6-11-22(20)29-23)16-4-7-18(28)8-5-16/h2-11,13-14,24,31H,12H2,1H3,(H,30,32)(H,33,34)/t24-/m0/s1

> <Ligand InChI Key>
WARYZYXGEAOEDW-DEOSSOPVSA-N

> <BindingDB MonomerID>
50444939

> <BindingDB Ligand Name>
CHEMBL3099757

> <Target Name Assigned by Curator or DataSource>
Cyclin-dependent kinase 2

> <Target Source Organism According to Curator or DataSource>
Homo sapiens

> <Ki (nM)>
 900

> <IC50 (nM)>


> <Kd (nM)>


> <EC50 (nM)>


> <kon (M-1-s-1)>


> <koff (s-1)>


> <pH>


> <Temp C>


> <Curation/DataSource>
ChEMBL

> <Article DOI>
10.1016/j.bmcl.2013.11.041

> <PMID>
24332088

> <PubChem AID>


> <Patent Number>


> <Authors>
Deng, Y; Shipps, GW; Zhao, L; Siddiqui, MA; Popovici-Muller, J; Curran, PJ; Duca, JS; Hruza, AW; Fischmann, TO; Madison, VS; Zhang, R; McNemar, CW; Mayhood, TW; Syto, R; Annis, A; Kirschmeier, P; Lees, EM; Parry, DA; Windsor, WT

> <Institution>
Merck Research Laboratories

> <Link to Ligand in BindingDB>
http://www.bindingdb.org/bind/chemsearch/marvin/MolStructure.jsp?monomerid=50444939

> <Link to Ligand-Target Pair in BindingDB>
http://www.bindingdb.org/jsp/dbsearch/PrimarySearch_ki.jsp?energyterm=kJ/mole&tag=pol&polymerid=796&target=Cyclin-dependent+kinase+2&column=ki&startPg=0&Increment=50&submit=Search

> <Link to Ligand-Target Pair in BindingDB>
http://www.bindingdb.org/jsp/dbsearch/PrimarySearch_ki.jsp?energyterm=kJ/mole&tag=r21&monomerid=50444939&enzyme=Cyclin-dependent+kinase+2&column=ki&startPg=0&Increment=50&submit=Search

> <Ligand HET ID in PDB>


> <PDB ID(s) for Ligand-Target Complex>


> <PubChem CID>
25026772

> <PubChem SID>
194942835

> <ChEBI ID of Ligand>


> <ChEMBL ID of Ligand>
CHEMBL3099757

> <DrugBank ID of Ligand>


> <IUPHAR_GRAC ID of Ligand>


> <KEGG ID of Ligand>


> <ZINC ID of Ligand>


> <Number of Protein Chains in Target (bigger than 1 implies a multichain complex)>
1

> <BindingDB Target Chain Sequence>
MENFQKVEKIGEGTYGVVYKARNKLTGEVVALKKIRLDTETEGVPSTAIREISLLKELNHPNIVKLLDVIHTENKLYLVFEFLHQDLKKFMDASALTGIPLPLIKSYLFQLLQGLAFCHSHRVLHRDLKPQNLLINTEGAIKLADFGLARAFGVPVRTYTHEVVTLWYRAPEILLGCKYYSTAVDIWSLGCIFAEMVTRRALFPGDSEIDQLFRIFRTLGTPDEVVWPGVTSMPDYKPSFPKWARQDFSKVVPPLDEDGRSLLSQMLHYDPNKRISAKAALAHPFFQDVTKPVPHLRL

> <PDB ID(s) of Target Chain>
1CKP,1DI8,1DM2,1E1V,1E1X,1E9H,1F5Q,1FIN,1FQ1,1FVT,1FVV,1G5S,1GIH,1GY3,1GZ8,1H00,1H01,1H07,1H08,1H0V,1H0W,1H1P,1H1Q,1H1R,1H1S,1H24,1H25,1H26,1H27,1H28,1HCK,1HCL,1JST,1JSU,1JSV,1JVP,1KE5,1KE6,1KE7,1KE8,1KE9,1OGU,1OI9,1OIQ,1OIR,1OIU,1OIY,1OKV,1OKW,1OL1,1OL2,1P2A,1P5E,1PF8,1PKD,1PW2,1PXI,1PXJ,1PXK,1PXL,1PXM,1PXN,1PXO,1PXP,1PYE,1QMZ,1R78,1URC,1URW,1V1K,1VYW,1VYZ,1W0X,1W8C,1W98,1WCC,1Y8Y,1Y91,1YKR,2A0C,2A4L,2B52,2B53,2B54,2B55,2BHE,2BHH,2BKZ,2BPM,2BTR,2BTS,2C4G,2C5N,2C5O,2C5V,2C5X,2C5Y,2C68,2C69,2C6I,2C6K,2C6L,2C6M,2C6O,2C6T,2CCH,2CCI,2CJM,2CLX,2DUV,2EXM,2FVD,2G9X,2I40,2J9M,2JGZ,2R3F,2R3G,2R3H,2R3I,2R3J,2R3K,2R3L,2R3M,2R3N,2R3O,2R3P,2R3Q,2R3R,2R64,2UUE,2UZB,2UZD,2UZE,2UZL,2UZN,2UZO,2V0D,2V22,2VTA,2VTH,2VTI,2VTJ,2VTL,2VTM,2VTN,2VTO,2VTP,2VTQ,2VTR,2VTS,2VTT,2VU3,2VV9,2W05,2W06,2W17,2W1H,2WEV,2WFY,2WHB,2WIH,2WIP,2WMA,2WMB,2WPA,2WXV,2X1N,2XMY,2XNB,3BHT,3BHU,3BHV,3DDP,3DDQ,3DOG,3EID,3EJ1,3EOC,3EZR,3EZV,3F5X,3FZ1,3IG7,3IGG,3LE6,3LFN,3LFQ,3LFS,3MY5,3NS9,3PJ8,3PXF,3PXQ,3PXR,3PXY,3PXZ,3PY0,3PY1,3QHR,3QHW,3QL8,3QQF,3QQG,3QQH,3QQJ,3QQK,3QQL,3QRT,3QRU,3QTQ,3QTR,3QTS,3QTU,3QTW,3QTX,3QTZ,3QU0,3QWJ,3QWK,3QX2,3QX4,3QXO,3QXP,3QZF,3QZG,3QZH,3QZI,3R1Q,3R1S,3R1Y,3R28,3R6X,3R71,3R73,3R7E,3R7I,3R7U,3R7V,3R7Y,3R83,3R8L,3R8M,3R8P,3R8U,3R8V,3R8Z,3R9D,3R9H,3R9N,3R9O,3RAH,3RAI,3RAK,3RAL,3RJC,3RK5,3RK7,3RK9,3RKB,3RM6,3RM7,3RMF,3RNI,3ROY,3RPO,3RPR,3RPV,3RPY,3RZB,3S00,3S0O,3S1H,3S2P,3SQQ,3SW4,3SW7,3TI1,3TIY,3TIZ,3TNW,3ULI,3UNJ,3UNK,3WBL,4ACM,4BCK,4BCM,4BCN,4BCO,4BCP,4BCQ,4BGH,4BZD,4CFM,4CFN,4CFU,4CFV,4CFW,4CFX,4D1X,4D1Z,4EK3,4EK4,4EK5,4EK6,4EK8,4EOQ,4EOR,4EOS,4ERW,4EZ3,4EZ7,4FKG,4FKI,4FKJ,4FKL,4FKO,4FKP,4FKQ,4FKR,4FKS,4FKT,4FKU,4FKV,4FKW,4FX3,4GCJ,4I3Z,4II5,4KD1,4LYN,4NJ3,4RJ3,5A14,5AND,5ANE,5ANG,5ANI,5ANJ,5ANK,5ANO,5CYI,5D1J,5FP5,5FP6,5IEV,5IEX,5IEY,5IF1,5JQ5,5JQ8,5K4J,5L2W,5LMK,5MHQ,5NEV,5OO0,5OSJ,5UQ1,5UQ2,5UQ3,6ATH,6GUB,6GUC,6GUE,6GUF,6GUH,6GUK,6GVA,6INL,6JGM,6OQI,6P3W,6Q3B,6Q3C,6Q3F,6Q48,6Q49,6Q4A,6Q4B,6Q4C,6Q4D,6Q4E,6Q4F,6Q4H,6Q4J,6Q4K,6RIJ,6SG4,7ACK,7B5L,7B5R,7B7S,7E34,7KJS,7M2F,7NVQ

> <UniProt (SwissProt) Recommended Name of Target Chain>
Cyclin-dependent kinase 2

> <UniProt (SwissProt) Entry Name of Target Chain>
CDK2_HUMAN

> <UniProt (SwissProt) Primary ID of Target Chain>
P24941

> <UniProt (SwissProt) Secondary ID(s) of Target Chain>
A8K7C6,O75100

> <UniProt (SwissProt) Alternative ID(s) of Target Chain>


> <UniProt (TrEMBL) Submitted Name of Target Chain>


> <UniProt (TrEMBL) Entry Name of Target Chain>


> <UniProt (TrEMBL) Primary ID of Target Chain>
A0A024RB77

> <UniProt (TrEMBL) Secondary ID(s) of Target Chain>


> <UniProt (TrEMBL) Alternative ID(s) of Target Chain>


$$$$
ttt_mol_1

Vconf v2.1
 44 46  0  0  0  0  0  0  0  0999 V2000
    0.7820  -27.2250    0.9880 N   0  0  0  0  0  0  0  0  0  0  0
    0.0810  -28.0800    0.2080 C   0  0  0  0  0  0  0  0  0  0  0
    0.7180  -28.7280   -0.7910 N   0  0  0  0  0  0  0  0  0  0  0
    2.0420  -28.5560   -1.0320 C   0  0  0  0  0  0  0  0  0  0  0
    2.7740  -27.6690   -0.2260 C   0  0  0  0  0  0  0  0  0  0  0
    2.1070  -26.9800    0.8080 C   0  0  0  0  0  0  0  0  0  0  0
    2.6930  -29.2030   -2.0330 N   0  0  0  0  0  0  0  0  0  0  0
    2.7590  -26.0680    1.6840 C   0  0  0  0  0  0  0  0  0  0  0
    2.1500  -30.0860   -2.9120 C   0  0  0  0  0  0  0  0  0  0  0
    2.5520  -30.0080   -4.2570 C   0  0  0  0  0  0  0  0  0  0  0
    2.0350  -30.9030   -5.2080 C   0  0  0  0  0  0  0  0  0  0  0
    1.1120  -31.8900   -4.8190 C   0  0  0  0  0  0  0  0  0  0  0
    0.7060  -31.9930   -3.4710 C   0  0  0  0  0  0  0  0  0  0  0
    1.2430  -31.0950   -2.5260 C   0  0  0  0  0  0  0  0  0  0  0
    3.7990  -25.1940    1.2640 C   0  0  0  0  0  0  0  0  0  0  0
    4.4000  -24.3240    2.2000 C   0  0  0  0  0  0  0  0  0  0  0
    3.9780  -24.3020    3.5370 C   0  0  0  0  0  0  0  0  0  0  0
    2.9440  -25.1500    3.9550 C   0  0  0  0  0  0  0  0  0  0  0
    2.3390  -26.0210    3.0350 C   0  0  0  0  0  0  0  0  0  0  0
    4.1730  -25.1870   -0.0550 O   0  0  0  0  0  0  0  0  0  0  0
    5.1830  -24.3260   -0.5880 C   0  0  0  0  0  0  0  0  0  0  0
    0.6420  -32.7040   -5.7240 F   0  0  0  0  0  0  0  0  0  0  0
   -0.1870  -32.9530   -3.1320 N   0  0  0  0  0  0  0  0  0  0  0
   -0.9360  -33.1000   -1.6290 S   0  0  0  0  0  0  0  0  0  0  0
   -1.9200  -31.6190   -1.3470 C   0  0  0  0  0  0  0  0  0  0  0
   -2.0100  -34.2480   -1.8620 O   0  0  0  0  0  0  0  0  0  0  0
    0.1550  -33.1630   -0.4740 O   0  0  0  0  0  0  0  0  0  0  0
   -0.9140  -28.2320    0.3720 H   0  0  0  0  0  0  0  0  0  0  0
    3.7740  -27.5430   -0.3870 H   0  0  0  0  0  0  0  0  0  0  0
    3.6270  -28.9780   -2.1640 H   0  0  0  0  0  0  0  0  0  0  0
    3.2210  -29.2950   -4.5510 H   0  0  0  0  0  0  0  0  0  0  0
    2.3300  -30.8310   -6.1820 H   0  0  0  0  0  0  0  0  0  0  0
    0.9770  -31.1720   -1.5460 H   0  0  0  0  0  0  0  0  0  0  0
    5.1460  -23.6920    1.9100 H   0  0  0  0  0  0  0  0  0  0  0
    4.4190  -23.6670    4.2030 H   0  0  0  0  0  0  0  0  0  0  0
    2.6320  -25.1350    4.9260 H   0  0  0  0  0  0  0  0  0  0  0
    1.5900  -26.6320    3.3650 H   0  0  0  0  0  0  0  0  0  0  0
    5.2820  -24.5200   -1.6560 H   0  0  0  0  0  0  0  0  0  0  0
    4.9040  -23.2810   -0.4450 H   0  0  0  0  0  0  0  0  0  0  0
    6.1410  -24.5210   -0.1040 H   0  0  0  0  0  0  0  0  0  0  0
   -0.4530  -33.5820   -3.8210 H   0  0  0  0  0  0  0  0  0  0  0
   -2.5000  -31.7450   -0.4340 H   0  0  0  0  0  0  0  0  0  0  0
   -1.2710  -30.7510   -1.2450 H   0  0  0  0  0  0  0  0  0  0  0
   -2.5970  -31.4700   -2.1890 H   0  0  0  0  0  0  0  0  0  0  0
  1  2  2  0  0  0  0
  1  6  1  0  0  0  0
  2  3  1  0  0  0  0
  2 28  1  0  0  0  0
  3  4  2  0  0  0  0
  4  5  1  0  0  0  0
  4  7  1  0  0  0  0
  5  6  2  0  0  0  0
  5 29  1  0  0  0  0
  6  8  1  0  0  0  0
  7  9  1  0  0  0  0
  7 30  1  0  0  0  0
  8 15  2  0  0  0  0
  8 19  1  0  0  0  0
  9 10  2  0  0  0  0
  9 14  1  0  0  0  0
 10 11  1  0  0  0  0
 10 31  1  0  0  0  0
 11 12  2  0  0  0  0
 11 32  1  0  0  0  0
 12 13  1  0  0  0  0
 12 22  1  0  0  0  0
 13 14  2  0  0  0  0
 13 23  1  0  0  0  0
 14 33  1  0  0  0  0
 15 16  1  0  0  0  0
 15 20  1  0  0  0  0
 16 17  2  0  0  0  0
 16 34  1  0  0  0  0
 17 18  1  0  0  0  0
 17 35  1  0  0  0  0
 18 19  2  0  0  0  0
 18 36  1  0  0  0  0
 19 37  1  0  0  0  0
 20 21  1  0  0  0  0
 21 38  1  0  0  0  0
 21 39  1  0  0  0  0
 21 40  1  0  0  0  0
 23 24  1  0  0  0  0
 23 41  1  0  0  0  0
 24 25  1  0  0  0  0
 24 26  2  0  0  0  0
 24 27  2  0  0  0  0
 25 42  1  0  0  0  0
 25 43  1  0  0  0  0
 25 44  1  0  0  0  0
M  END
> <From>
www.bindingDB.org

> <BindingDB Reactant_set_id>
50519869

> <Ligand InChI>
InChI=1S/C18H17FN4O3S/c1-26-17-6-4-3-5-13(17)15-10-18(21-11-20-15)22-12-7-8-14(19)16(9-12)23-27(2,24)25/h3-11,23H,1-2H3,(H,20,21,22)

> <Ligand InChI Key>
QTORRJJDONDBFZ-UHFFFAOYSA-N

> <BindingDB MonomerID>
50193090

> <BindingDB Ligand Name>
CHEMBL3895785

> <Target Name Assigned by Curator or DataSource>
Cyclin-dependent kinase 2

> <Target Source Organism According to Curator or DataSource>
Homo sapiens

> <Ki (nM)>
>1000

> <IC50 (nM)>


> <Kd (nM)>


> <EC50 (nM)>


> <kon (M-1-s-1)>


> <koff (s-1)>


> <pH>


> <Temp C>


> <Curation/DataSource>
ChEMBL

> <Article DOI>
10.1021/acs.jmedchem.6b00150

> <PMID>
27171036

> <PubChem AID>


> <Patent Number>


> <Authors>
Sonawane, YA; Taylor, MA; Napoleon, JV; Rana, S; Contreras, JI; Natarajan, A

> <Institution>
University of Nebraska Medical Center

> <Link to Ligand in BindingDB>
http://www.bindingdb.org/bind/chemsearch/marvin/MolStructure.jsp?monomerid=50193090

> <Link to Ligand-Target Pair in BindingDB>
http://www.bindingdb.org/jsp/dbsearch/PrimarySearch_ki.jsp?energyterm=kJ/mole&tag=pol&polymerid=796&target=Cyclin-dependent+kinase+2&column=ki&startPg=0&Increment=50&submit=Search

> <Link to Ligand-Target Pair in BindingDB>
http://www.bindingdb.org/jsp/dbsearch/PrimarySearch_ki.jsp?energyterm=kJ/mole&tag=r21&monomerid=50193090&enzyme=Cyclin-dependent+kinase+2&column=ki&startPg=0&Increment=50&submit=Search

> <Ligand HET ID in PDB>


> <PDB ID(s) for Ligand-Target Complex>


> <PubChem CID>
134137436

> <PubChem SID>
375076100

> <ChEBI ID of Ligand>


> <ChEMBL ID of Ligand>
CHEMBL3895785

> <DrugBank ID of Ligand>


> <IUPHAR_GRAC ID of Ligand>


> <KEGG ID of Ligand>


> <ZINC ID of Ligand>


> <Number of Protein Chains in Target (bigger than 1 implies a multichain complex)>
1

> <BindingDB Target Chain Sequence>
MENFQKVEKIGEGTYGVVYKARNKLTGEVVALKKIRLDTETEGVPSTAIREISLLKELNHPNIVKLLDVIHTENKLYLVFEFLHQDLKKFMDASALTGIPLPLIKSYLFQLLQGLAFCHSHRVLHRDLKPQNLLINTEGAIKLADFGLARAFGVPVRTYTHEVVTLWYRAPEILLGCKYYSTAVDIWSLGCIFAEMVTRRALFPGDSEIDQLFRIFRTLGTPDEVVWPGVTSMPDYKPSFPKWARQDFSKVVPPLDEDGRSLLSQMLHYDPNKRISAKAALAHPFFQDVTKPVPHLRL

> <PDB ID(s) of Target Chain>
1CKP,1DI8,1DM2,1E1V,1E1X,1E9H,1F5Q,1FIN,1FQ1,1FVT,1FVV,1G5S,1GIH,1GY3,1GZ8,1H00,1H01,1H07,1H08,1H0V,1H0W,1H1P,1H1Q,1H1R,1H1S,1H24,1H25,1H26,1H27,1H28,1HCK,1HCL,1JST,1JSU,1JSV,1JVP,1KE5,1KE6,1KE7,1KE8,1KE9,1OGU,1OI9,1OIQ,1OIR,1OIU,1OIY,1OKV,1OKW,1OL1,1OL2,1P2A,1P5E,1PF8,1PKD,1PW2,1PXI,1PXJ,1PXK,1PXL,1PXM,1PXN,1PXO,1PXP,1PYE,1QMZ,1R78,1URC,1URW,1V1K,1VYW,1VYZ,1W0X,1W8C,1W98,1WCC,1Y8Y,1Y91,1YKR,2A0C,2A4L,2B52,2B53,2B54,2B55,2BHE,2BHH,2BKZ,2BPM,2BTR,2BTS,2C4G,2C5N,2C5O,2C5V,2C5X,2C5Y,2C68,2C69,2C6I,2C6K,2C6L,2C6M,2C6O,2C6T,2CCH,2CCI,2CJM,2CLX,2DUV,2EXM,2FVD,2G9X,2I40,2J9M,2JGZ,2R3F,2R3G,2R3H,2R3I,2R3J,2R3K,2R3L,2R3M,2R3N,2R3O,2R3P,2R3Q,2R3R,2R64,2UUE,2UZB,2UZD,2UZE,2UZL,2UZN,2UZO,2V0D,2V22,2VTA,2VTH,2VTI,2VTJ,2VTL,2VTM,2VTN,2VTO,2VTP,2VTQ,2VTR,2VTS,2VTT,2VU3,2VV9,2W05,2W06,2W17,2W1H,2WEV,2WFY,2WHB,2WIH,2WIP,2WMA,2WMB,2WPA,2WXV,2X1N,2XMY,2XNB,3BHT,3BHU,3BHV,3DDP,3DDQ,3DOG,3EID,3EJ1,3EOC,3EZR,3EZV,3F5X,3FZ1,3IG7,3IGG,3LE6,3LFN,3LFQ,3LFS,3MY5,3NS9,3PJ8,3PXF,3PXQ,3PXR,3PXY,3PXZ,3PY0,3PY1,3QHR,3QHW,3QL8,3QQF,3QQG,3QQH,3QQJ,3QQK,3QQL,3QRT,3QRU,3QTQ,3QTR,3QTS,3QTU,3QTW,3QTX,3QTZ,3QU0,3QWJ,3QWK,3QX2,3QX4,3QXO,3QXP,3QZF,3QZG,3QZH,3QZI,3R1Q,3R1S,3R1Y,3R28,3R6X,3R71,3R73,3R7E,3R7I,3R7U,3R7V,3R7Y,3R83,3R8L,3R8M,3R8P,3R8U,3R8V,3R8Z,3R9D,3R9H,3R9N,3R9O,3RAH,3RAI,3RAK,3RAL,3RJC,3RK5,3RK7,3RK9,3RKB,3RM6,3RM7,3RMF,3RNI,3ROY,3RPO,3RPR,3RPV,3RPY,3RZB,3S00,3S0O,3S1H,3S2P,3SQQ,3SW4,3SW7,3TI1,3TIY,3TIZ,3TNW,3ULI,3UNJ,3UNK,3WBL,4ACM,4BCK,4BCM,4BCN,4BCO,4BCP,4BCQ,4BGH,4BZD,4CFM,4CFN,4CFU,4CFV,4CFW,4CFX,4D1X,4D1Z,4EK3,4EK4,4EK5,4EK6,4EK8,4EOQ,4EOR,4EOS,4ERW,4EZ3,4EZ7,4FKG,4FKI,4FKJ,4FKL,4FKO,4FKP,4FKQ,4FKR,4FKS,4FKT,4FKU,4FKV,4FKW,4FX3,4GCJ,4I3Z,4II5,4KD1,4LYN,4NJ3,4RJ3,5A14,5AND,5ANE,5ANG,5ANI,5ANJ,5ANK,5ANO,5CYI,5D1J,5FP5,5FP6,5IEV,5IEX,5IEY,5IF1,5JQ5,5JQ8,5K4J,5L2W,5LMK,5MHQ,5NEV,5OO0,5OSJ,5UQ1,5UQ2,5UQ3,6ATH,6GUB,6GUC,6GUE,6GUF,6GUH,6GUK,6GVA,6INL,6JGM,6OQI,6P3W,6Q3B,6Q3C,6Q3F,6Q48,6Q49,6Q4A,6Q4B,6Q4C,6Q4D,6Q4E,6Q4F,6Q4H,6Q4J,6Q4K,6RIJ,6SG4,7ACK,7B5L,7B5R,7B7S,7E34,7KJS,7M2F,7NVQ

> <UniProt (SwissProt) Recommended Name of Target Chain>
Cyclin-dependent kinase 2

> <UniProt (SwissProt) Entry Name of Target Chain>
CDK2_HUMAN

> <UniProt (SwissProt) Primary ID of Target Chain>
P24941

> <UniProt (SwissProt) Secondary ID(s) of Target Chain>
A8K7C6,O75100

> <UniProt (SwissProt) Alternative ID(s) of Target Chain>


> <UniProt (TrEMBL) Submitted Name of Target Chain>


> <UniProt (TrEMBL) Entry Name of Target Chain>


> <UniProt (TrEMBL) Primary ID of Target Chain>
A0A024RB77

> <UniProt (TrEMBL) Secondary ID(s) of Target Chain>


> <UniProt (TrEMBL) Alternative ID(s) of Target Chain>


$$$$
BindingDB_50319619_mol_1

Vconf v2.0 Academic SN VC001-00000579
 47 50  0  0  0  0  0  0  0  0999 V2000
   11.9200  -11.3150    0.6550 C   0  0  0  0  0  0  0  0  0  0  0
   12.0210  -12.7130    0.6350 C   0  0  0  0  0  0  0  0  0  0  0
   13.2290  -13.3070    0.4830 N   0  0  0  0  0  0  0  0  0  0  0
   14.3630  -12.5820    0.3470 C   0  0  0  0  0  0  0  0  0  0  0
   14.2710  -11.2290    0.3650 N   0  0  0  0  0  0  0  0  0  0  0
   13.1000  -10.5630    0.5130 C   0  0  0  0  0  0  0  0  0  0  0
   15.5470  -13.2180    0.1980 N   0  0  0  0  0  0  0  0  0  0  0
   16.7190  -12.5580    0.0560 C   0  0  0  0  0  0  0  0  0  0  0
   17.4820  -12.2240    1.1900 C   0  0  0  0  0  0  0  0  0  0  0
   18.6680  -11.4820    1.0480 C   0  0  0  0  0  0  0  0  0  0  0
   19.1030  -11.0720   -0.2280 C   0  0  0  0  0  0  0  0  0  0  0
   18.3460  -11.4260   -1.3620 C   0  0  0  0  0  0  0  0  0  0  0
   17.1600  -12.1680   -1.2220 C   0  0  0  0  0  0  0  0  0  0  0
   13.0750   -9.1530    0.5220 C   0  0  0  0  0  0  0  0  0  0  0
   11.5910   -8.2770    0.7120 S   0  0  0  0  0  0  0  0  0  0  0
   12.5210   -6.8220    0.6010 C   0  0  0  0  0  0  0  0  0  0  0
   13.8370   -7.0020    0.4350 N   0  0  0  0  0  0  0  0  0  0  0
   14.1750   -8.2970    0.3870 C   0  0  0  0  0  0  0  0  0  0  0
   15.5770   -8.7010    0.2090 C   0  0  0  0  0  0  0  0  0  0  0
   11.9070   -5.4980    0.6830 C   0  0  0  0  0  0  0  0  0  0  0
   20.2290  -10.3220   -0.3600 N   0  0  0  0  0  0  0  0  0  0  0
   21.3130  -10.7290   -1.1950 C   0  0  0  0  0  0  0  0  0  0  0
   21.5550   -9.6450   -2.2570 C   0  0  0  0  0  0  0  0  0  0  0
   21.6970   -8.3760   -1.6180 O   0  0  0  0  0  0  0  0  0  0  0
   20.6080   -7.9790   -0.7840 C   0  0  0  0  0  0  0  0  0  0  0
   20.3570   -9.0540    0.2850 C   0  0  0  0  0  0  0  0  0  0  0
   11.0090  -10.8690    0.7700 H   0  0  0  0  0  0  0  0  0  0  0
   11.1840  -13.2870    0.7350 H   0  0  0  0  0  0  0  0  0  0  0
   15.5540  -14.1870    0.1950 H   0  0  0  0  0  0  0  0  0  0  0
   17.1670  -12.5010    2.1210 H   0  0  0  0  0  0  0  0  0  0  0
   19.2080  -11.2320    1.8770 H   0  0  0  0  0  0  0  0  0  0  0
   18.6490  -11.1320   -2.2910 H   0  0  0  0  0  0  0  0  0  0  0
   16.6110  -12.4050   -2.0480 H   0  0  0  0  0  0  0  0  0  0  0
   16.2110   -7.8170    0.1330 H   0  0  0  0  0  0  0  0  0  0  0
   15.9030   -9.2960    1.0630 H   0  0  0  0  0  0  0  0  0  0  0
   15.6800   -9.2880   -0.7040 H   0  0  0  0  0  0  0  0  0  0  0
   12.6710   -4.7250    0.5880 H   0  0  0  0  0  0  0  0  0  0  0
   11.1800   -5.3870   -0.1210 H   0  0  0  0  0  0  0  0  0  0  0
   11.4040   -5.3930    1.6440 H   0  0  0  0  0  0  0  0  0  0  0
   21.1180  -11.6830   -1.6910 H   0  0  0  0  0  0  0  0  0  0  0
   22.2110  -10.8330   -0.5850 H   0  0  0  0  0  0  0  0  0  0  0
   22.4630   -9.8760   -2.8140 H   0  0  0  0  0  0  0  0  0  0  0
   20.7100   -9.6140   -2.9460 H   0  0  0  0  0  0  0  0  0  0  0
   19.7100   -7.8530   -1.3910 H   0  0  0  0  0  0  0  0  0  0  0
   20.8470   -7.0320   -0.3000 H   0  0  0  0  0  0  0  0  0  0  0
   19.4620   -8.7860    0.8520 H   0  0  0  0  0  0  0  0  0  0  0
   21.2080   -9.0840    0.9660 H   0  0  0  0  0  0  0  0  0  0  0
  1  2  2  0  0  0  0
  1  6  1  0  0  0  0
  1 27  1  0  0  0  0
  2  3  1  0  0  0  0
  2 28  1  0  0  0  0
  3  4  2  0  0  0  0
  4  5  1  0  0  0  0
  4  7  1  0  0  0  0
  5  6  2  0  0  0  0
  6 14  1  0  0  0  0
  7  8  1  0  0  0  0
  7 29  1  0  0  0  0
  8  9  1  0  0  0  0
  8 13  2  0  0  0  0
  9 10  2  0  0  0  0
  9 30  1  0  0  0  0
 10 11  1  0  0  0  0
 10 31  1  0  0  0  0
 11 12  2  0  0  0  0
 11 21  1  0  0  0  0
 12 13  1  0  0  0  0
 12 32  1  0  0  0  0
 13 33  1  0  0  0  0
 14 15  1  0  0  0  0
 14 18  2  0  0  0  0
 15 16  1  0  0  0  0
 16 17  2  0  0  0  0
 16 20  1  0  0  0  0
 17 18  1  0  0  0  0
 18 19  1  0  0  0  0
 19 34  1  0  0  0  0
 19 35  1  0  0  0  0
 19 36  1  0  0  0  0
 20 37  1  0  0  0  0
 20 38  1  0  0  0  0
 20 39  1  0  0  0  0
 21 22  1  0  0  0  0
 21 26  1  0  0  0  0
 22 23  1  0  0  0  0
 22 40  1  0  0  0  0
 22 41  1  0  0  0  0
 23 24  1  0  0  0  0
 23 42  1  0  0  0  0
 23 43  1  0  0  0  0
 24 25  1  0  0  0  0
 25 26  1  0  0  0  0
 25 44  1  0  0  0  0
 25 45  1  0  0  0  0
 26 46  1  0  0  0  0
 26 47  1  0  0  0  0
M  END
> <From>
www.bindingDB.org

> <BindingDB Reactant_set_id>
50579845

> <Ligand InChI>
InChI=1S/C19H21N5OS/c1-13-18(26-14(2)21-13)17-7-8-20-19(23-17)22-15-3-5-16(6-4-15)24-9-11-25-12-10-24/h3-8H,9-12H2,1-2H3,(H,20,22,23)

> <Ligand InChI Key>
WIFHQQKDNLBDGL-UHFFFAOYSA-N

> <BindingDB MonomerID>
50319619

> <BindingDB Ligand Name>
4-(2,4-Dimethylthiazol-5-yl)-N-(4-morpholinophenyl)pyrimidin-2-amine::Aminopyrimidine, 5::CHEMBL1085626

> <Target Name Assigned by Curator or DataSource>
Cyclin-dependent kinase 2

> <Target Source Organism According to Curator or DataSource>
Homo sapiens

> <Ki (nM)>
 1039

> <IC50 (nM)>


> <Kd (nM)>


> <EC50 (nM)>


> <kon (M-1-s-1)>


> <koff (s-1)>


> <pH>


> <Temp C>


> <Curation/DataSource>
ChEMBL

> <Article DOI>
10.1021/jm901913s

> <PMID>
20462263

> <PubChem AID>


> <Patent Number>


> <Authors>
Wang, S; Midgley, CA; Scaerou, F; Grabarek, JB; Griffiths, G; Jackson, W; Kontopidis, G; McClue, SJ; McInnes, C; Meades, C; Mezna, M; Plater, A; Stuart, I; Thomas, MP; Wood, G; Clarke, RG; Blake, DG; Zheleva, DI; Lane, DP; Jackson, RC; Glover, DM; Fischer, PM

> <Institution>
Cyclacel Ltd

> <Link to Ligand in BindingDB>
http://www.bindingdb.org/bind/chemsearch/marvin/MolStructure.jsp?monomerid=50319619

> <Link to Ligand-Target Pair in BindingDB>
http://www.bindingdb.org/jsp/dbsearch/PrimarySearch_ki.jsp?energyterm=kJ/mole&tag=pol&polymerid=796&target=Cyclin-dependent+kinase+2&column=ki&startPg=0&Increment=50&submit=Search

> <Link to Ligand-Target Pair in BindingDB>
http://www.bindingdb.org/jsp/dbsearch/PrimarySearch_ki.jsp?energyterm=kJ/mole&tag=r21&monomerid=50319619&enzyme=Cyclin-dependent+kinase+2&column=ki&startPg=0&Increment=50&submit=Search

> <Ligand HET ID in PDB>


> <PDB ID(s) for Ligand-Target Complex>


> <PubChem CID>
10248401

> <PubChem SID>
104153980

> <ChEBI ID of Ligand>


> <ChEMBL ID of Ligand>
CHEMBL1085626

> <DrugBank ID of Ligand>


> <IUPHAR_GRAC ID of Ligand>


> <KEGG ID of Ligand>


> <ZINC ID of Ligand>
ZINC38423616

> <Number of Protein Chains in Target (bigger than 1 implies a multichain complex)>
1

> <BindingDB Target Chain Sequence>
MENFQKVEKIGEGTYGVVYKARNKLTGEVVALKKIRLDTETEGVPSTAIREISLLKELNHPNIVKLLDVIHTENKLYLVFEFLHQDLKKFMDASALTGIPLPLIKSYLFQLLQGLAFCHSHRVLHRDLKPQNLLINTEGAIKLADFGLARAFGVPVRTYTHEVVTLWYRAPEILLGCKYYSTAVDIWSLGCIFAEMVTRRALFPGDSEIDQLFRIFRTLGTPDEVVWPGVTSMPDYKPSFPKWARQDFSKVVPPLDEDGRSLLSQMLHYDPNKRISAKAALAHPFFQDVTKPVPHLRL

> <PDB ID(s) of Target Chain>
1CKP,1DI8,1DM2,1E1V,1E1X,1E9H,1F5Q,1FIN,1FQ1,1FVT,1FVV,1G5S,1GIH,1GY3,1GZ8,1H00,1H01,1H07,1H08,1H0V,1H0W,1H1P,1H1Q,1H1R,1H1S,1H24,1H25,1H26,1H27,1H28,1HCK,1HCL,1JST,1JSU,1JSV,1JVP,1KE5,1KE6,1KE7,1KE8,1KE9,1OGU,1OI9,1OIQ,1OIR,1OIU,1OIY,1OKV,1OKW,1OL1,1OL2,1P2A,1P5E,1PF8,1PKD,1PW2,1PXI,1PXJ,1PXK,1PXL,1PXM,1PXN,1PXO,1PXP,1PYE,1QMZ,1R78,1URC,1URW,1V1K,1VYW,1VYZ,1W0X,1W8C,1W98,1WCC,1Y8Y,1Y91,1YKR,2A0C,2A4L,2B52,2B53,2B54,2B55,2BHE,2BHH,2BKZ,2BPM,2BTR,2BTS,2C4G,2C5N,2C5O,2C5V,2C5X,2C5Y,2C68,2C69,2C6I,2C6K,2C6L,2C6M,2C6O,2C6T,2CCH,2CCI,2CJM,2CLX,2DUV,2EXM,2FVD,2G9X,2I40,2J9M,2JGZ,2R3F,2R3G,2R3H,2R3I,2R3J,2R3K,2R3L,2R3M,2R3N,2R3O,2R3P,2R3Q,2R3R,2R64,2UUE,2UZB,2UZD,2UZE,2UZL,2UZN,2UZO,2V0D,2V22,2VTA,2VTH,2VTI,2VTJ,2VTL,2VTM,2VTN,2VTO,2VTP,2VTQ,2VTR,2VTS,2VTT,2VU3,2VV9,2W05,2W06,2W17,2W1H,2WEV,2WFY,2WHB,2WIH,2WIP,2WMA,2WMB,2WPA,2WXV,2X1N,2XMY,2XNB,3BHT,3BHU,3BHV,3DDP,3DDQ,3DOG,3EID,3EJ1,3EOC,3EZR,3EZV,3F5X,3FZ1,3IG7,3IGG,3LE6,3LFN,3LFQ,3LFS,3MY5,3NS9,3PJ8,3PXF,3PXQ,3PXR,3PXY,3PXZ,3PY0,3PY1,3QHR,3QHW,3QL8,3QQF,3QQG,3QQH,3QQJ,3QQK,3QQL,3QRT,3QRU,3QTQ,3QTR,3QTS,3QTU,3QTW,3QTX,3QTZ,3QU0,3QWJ,3QWK,3QX2,3QX4,3QXO,3QXP,3QZF,3QZG,3QZH,3QZI,3R1Q,3R1S,3R1Y,3R28,3R6X,3R71,3R73,3R7E,3R7I,3R7U,3R7V,3R7Y,3R83,3R8L,3R8M,3R8P,3R8U,3R8V,3R8Z,3R9D,3R9H,3R9N,3R9O,3RAH,3RAI,3RAK,3RAL,3RJC,3RK5,3RK7,3RK9,3RKB,3RM6,3RM7,3RMF,3RNI,3ROY,3RPO,3RPR,3RPV,3RPY,3RZB,3S00,3S0O,3S1H,3S2P,3SQQ,3SW4,3SW7,3TI1,3TIY,3TIZ,3TNW,3ULI,3UNJ,3UNK,3WBL,4ACM,4BCK,4BCM,4BCN,4BCO,4BCP,4BCQ,4BGH,4BZD,4CFM,4CFN,4CFU,4CFV,4CFW,4CFX,4D1X,4D1Z,4EK3,4EK4,4EK5,4EK6,4EK8,4EOQ,4EOR,4EOS,4ERW,4EZ3,4EZ7,4FKG,4FKI,4FKJ,4FKL,4FKO,4FKP,4FKQ,4FKR,4FKS,4FKT,4FKU,4FKV,4FKW,4FX3,4GCJ,4I3Z,4II5,4KD1,4LYN,4NJ3,4RJ3,5A14,5AND,5ANE,5ANG,5ANI,5ANJ,5ANK,5ANO,5CYI,5D1J,5FP5,5FP6,5IEV,5IEX,5IEY,5IF1,5JQ5,5JQ8,5K4J,5L2W,5LMK,5MHQ,5NEV,5OO0,5OSJ,5UQ1,5UQ2,5UQ3,6ATH,6GUB,6GUC,6GUE,6GUF,6GUH,6GUK,6GVA,6INL,6JGM,6OQI,6P3W,6Q3B,6Q3C,6Q3F,6Q48,6Q49,6Q4A,6Q4B,6Q4C,6Q4D,6Q4E,6Q4F,6Q4H,6Q4J,6Q4K,6RIJ,6SG4,7ACK,7B5L,7B5R,7B7S,7E34,7KJS,7M2F,7NVQ

> <UniProt (SwissProt) Recommended Name of Target Chain>
Cyclin-dependent kinase 2

> <UniProt (SwissProt) Entry Name of Target Chain>
CDK2_HUMAN

> <UniProt (SwissProt) Primary ID of Target Chain>
P24941

> <UniProt (SwissProt) Secondary ID(s) of Target Chain>
A8K7C6,O75100

> <UniProt (SwissProt) Alternative ID(s) of Target Chain>


> <UniProt (TrEMBL) Submitted Name of Target Chain>


> <UniProt (TrEMBL) Entry Name of Target Chain>


> <UniProt (TrEMBL) Primary ID of Target Chain>
A0A024RB77

> <UniProt (TrEMBL) Secondary ID(s) of Target Chain>


> <UniProt (TrEMBL) Alternative ID(s) of Target Chain>


$$$$
BindingDB_50276064_mol_1

Vconf v2.0 Academic SN VC001-00000579
 37 39  0  0  0  0  0  0  0  0999 V2000
   -3.1890    2.8050   -0.0330 C   0  0  0  0  0  0  0  0  0  0  0
   -3.2250    1.5960    0.6860 C   0  0  0  0  0  0  0  0  0  0  0
   -2.0250    1.0860    1.2260 C   0  0  0  0  0  0  0  0  0  0  0
   -0.8130    1.7890    1.0810 C   0  0  0  0  0  0  0  0  0  0  0
   -0.8020    3.0080    0.3760 C   0  0  0  0  0  0  0  0  0  0  0
   -1.9860    3.5210   -0.1880 C   0  0  0  0  0  0  0  0  0  0  0
   -4.4210    0.9620    0.7900 N   0  0  0  0  0  0  0  0  0  0  0
   -4.9100    0.3350    1.8870 C   0  0  0  0  0  0  0  0  0  0  0
   -6.1500   -0.2030    1.8130 N   0  0  0  0  0  0  0  0  0  0  0
   -6.7220   -0.8320    2.8660 C   0  0  0  0  0  0  0  0  0  0  0
   -6.0290   -0.9430    4.0790 C   0  0  0  0  0  0  0  0  0  0  0
   -4.7400   -0.3830    4.1500 C   0  0  0  0  0  0  0  0  0  0  0
   -4.2310    0.2360    3.0570 N   0  0  0  0  0  0  0  0  0  0  0
   -3.9560   -0.4440    5.3120 C   0  0  0  0  0  0  0  0  0  0  0
   -4.3570   -1.0280    6.4570 N   0  0  0  0  0  0  0  0  0  0  0
   -3.4230   -0.9610    7.4130 C   0  0  0  0  0  0  0  0  0  0  0
   -2.2690   -0.3130    6.9960 C   0  0  0  0  0  0  0  0  0  0  0
   -2.3610    0.2370    5.3590 S   0  0  0  0  0  0  0  0  0  0  0
   -1.0910   -0.1100    7.8400 C   0  0  0  0  0  0  0  0  0  0  0
   -1.9860    4.7900   -0.9310 C   0  0  0  0  0  0  0  0  0  0  0
    0.4190    1.2410    1.6690 C   0  0  0  0  0  0  0  0  0  0  0
   -4.0500    3.1760   -0.4400 H   0  0  0  0  0  0  0  0  0  0  0
   -2.0300    0.1970    1.7270 H   0  0  0  0  0  0  0  0  0  0  0
    0.0730    3.5230    0.2700 H   0  0  0  0  0  0  0  0  0  0  0
   -5.0130    1.0130    0.0240 H   0  0  0  0  0  0  0  0  0  0  0
   -7.6600   -1.2260    2.7760 H   0  0  0  0  0  0  0  0  0  0  0
   -6.4530   -1.4170    4.8780 H   0  0  0  0  0  0  0  0  0  0  0
   -3.5470   -1.3500    8.3480 H   0  0  0  0  0  0  0  0  0  0  0
   -0.3220    0.4130    7.2710 H   0  0  0  0  0  0  0  0  0  0  0
   -1.3600    0.4860    8.7120 H   0  0  0  0  0  0  0  0  0  0  0
   -0.7000   -1.0750    8.1660 H   0  0  0  0  0  0  0  0  0  0  0
   -0.9900    5.2380   -0.9460 H   0  0  0  0  0  0  0  0  0  0  0
   -2.3050    4.6120   -1.9580 H   0  0  0  0  0  0  0  0  0  0  0
   -2.6760    5.4900   -0.4580 H   0  0  0  0  0  0  0  0  0  0  0
    1.2720    1.8960    1.4790 H   0  0  0  0  0  0  0  0  0  0  0
    0.2920    1.1350    2.7470 H   0  0  0  0  0  0  0  0  0  0  0
    0.6270    0.2620    1.2360 H   0  0  0  0  0  0  0  0  0  0  0
  1  2  1  0  0  0  0
  1  6  2  0  0  0  0
  1 22  1  0  0  0  0
  2  3  2  0  0  0  0
  2  7  1  0  0  0  0
  3  4  1  0  0  0  0
  3 23  1  0  0  0  0
  4  5  2  0  0  0  0
  4 21  1  0  0  0  0
  5  6  1  0  0  0  0
  5 24  1  0  0  0  0
  6 20  1  0  0  0  0
  7  8  1  0  0  0  0
  7 25  1  0  0  0  0
  8  9  1  0  0  0  0
  8 13  2  0  0  0  0
  9 10  2  0  0  0  0
 10 11  1  0  0  0  0
 10 26  1  0  0  0  0
 11 12  2  0  0  0  0
 11 27  1  0  0  0  0
 12 13  1  0  0  0  0
 12 14  1  0  0  0  0
 14 15  2  0  0  0  0
 14 18  1  0  0  0  0
 15 16  1  0  0  0  0
 16 17  2  0  0  0  0
 16 28  1  0  0  0  0
 17 18  1  0  0  0  0
 17 19  1  0  0  0  0
 19 29  1  0  0  0  0
 19 30  1  0  0  0  0
 19 31  1  0  0  0  0
 20 32  1  0  0  0  0
 20 33  1  0  0  0  0
 20 34  1  0  0  0  0
 21 35  1  0  0  0  0
 21 36  1  0  0  0  0
 21 37  1  0  0  0  0
M  END
> <From>
www.bindingDB.org

> <BindingDB Reactant_set_id>
50436577

> <Ligand InChI>
InChI=1S/C16H16N4S/c1-10-6-11(2)8-13(7-10)19-16-17-5-4-14(20-16)15-18-9-12(3)21-15/h4-9H,1-3H3,(H,17,19,20)

> <Ligand InChI Key>
LZQTVVQZQUWSAI-UHFFFAOYSA-N

> <BindingDB MonomerID>
50276064

> <BindingDB Ligand Name>
CHEMBL470780::N-(3,5-dimethylphenyl)-4-(5-methylthiazol-2-yl)pyrimidin-2-amine

> <Target Name Assigned by Curator or DataSource>
Cyclin-dependent kinase 2

> <Target Source Organism According to Curator or DataSource>
Homo sapiens

> <Ki (nM)>
 1100

> <IC50 (nM)>


> <Kd (nM)>


> <EC50 (nM)>


> <kon (M-1-s-1)>


> <koff (s-1)>


> <pH>


> <Temp C>


> <Curation/DataSource>
ChEMBL

> <Article DOI>
10.1016/j.bmcl.2008.09.106

> <PMID>
18938080

> <PubChem AID>


> <Patent Number>


> <Authors>
Farmer, LJ; Bemis, G; Britt, SD; Cochran, J; Connors, M; Harrington, EM; Hoock, T; Markland, W; Nanthakumar, S; Taslimi, P; Ter Haar, E; Wang, J; Zhaveri, D; Salituro, FG

> <Institution>
Vertex Pharmaceuticals Inc

> <Link to Ligand in BindingDB>
http://www.bindingdb.org/bind/chemsearch/marvin/MolStructure.jsp?monomerid=50276064

> <Link to Ligand-Target Pair in BindingDB>
http://www.bindingdb.org/jsp/dbsearch/PrimarySearch_ki.jsp?energyterm=kJ/mole&tag=pol&polymerid=796&target=Cyclin-dependent+kinase+2&column=ki&startPg=0&Increment=50&submit=Search

> <Link to Ligand-Target Pair in BindingDB>
http://www.bindingdb.org/jsp/dbsearch/PrimarySearch_ki.jsp?energyterm=kJ/mole&tag=r21&monomerid=50276064&enzyme=Cyclin-dependent+kinase+2&column=ki&startPg=0&Increment=50&submit=Search

> <Ligand HET ID in PDB>


> <PDB ID(s) for Ligand-Target Complex>


> <PubChem CID>
44590204

> <PubChem SID>
104119388

> <ChEBI ID of Ligand>


> <ChEMBL ID of Ligand>
CHEMBL470780

> <DrugBank ID of Ligand>


> <IUPHAR_GRAC ID of Ligand>


> <KEGG ID of Ligand>


> <ZINC ID of Ligand>
ZINC40892593

> <Number of Protein Chains in Target (bigger than 1 implies a multichain complex)>
1

> <BindingDB Target Chain Sequence>
MENFQKVEKIGEGTYGVVYKARNKLTGEVVALKKIRLDTETEGVPSTAIREISLLKELNHPNIVKLLDVIHTENKLYLVFEFLHQDLKKFMDASALTGIPLPLIKSYLFQLLQGLAFCHSHRVLHRDLKPQNLLINTEGAIKLADFGLARAFGVPVRTYTHEVVTLWYRAPEILLGCKYYSTAVDIWSLGCIFAEMVTRRALFPGDSEIDQLFRIFRTLGTPDEVVWPGVTSMPDYKPSFPKWARQDFSKVVPPLDEDGRSLLSQMLHYDPNKRISAKAALAHPFFQDVTKPVPHLRL

> <PDB ID(s) of Target Chain>
1CKP,1DI8,1DM2,1E1V,1E1X,1E9H,1F5Q,1FIN,1FQ1,1FVT,1FVV,1G5S,1GIH,1GY3,1GZ8,1H00,1H01,1H07,1H08,1H0V,1H0W,1H1P,1H1Q,1H1R,1H1S,1H24,1H25,1H26,1H27,1H28,1HCK,1HCL,1JST,1JSU,1JSV,1JVP,1KE5,1KE6,1KE7,1KE8,1KE9,1OGU,1OI9,1OIQ,1OIR,1OIU,1OIY,1OKV,1OKW,1OL1,1OL2,1P2A,1P5E,1PF8,1PKD,1PW2,1PXI,1PXJ,1PXK,1PXL,1PXM,1PXN,1PXO,1PXP,1PYE,1QMZ,1R78,1URC,1URW,1V1K,1VYW,1VYZ,1W0X,1W8C,1W98,1WCC,1Y8Y,1Y91,1YKR,2A0C,2A4L,2B52,2B53,2B54,2B55,2BHE,2BHH,2BKZ,2BPM,2BTR,2BTS,2C4G,2C5N,2C5O,2C5V,2C5X,2C5Y,2C68,2C69,2C6I,2C6K,2C6L,2C6M,2C6O,2C6T,2CCH,2CCI,2CJM,2CLX,2DUV,2EXM,2FVD,2G9X,2I40,2J9M,2JGZ,2R3F,2R3G,2R3H,2R3I,2R3J,2R3K,2R3L,2R3M,2R3N,2R3O,2R3P,2R3Q,2R3R,2R64,2UUE,2UZB,2UZD,2UZE,2UZL,2UZN,2UZO,2V0D,2V22,2VTA,2VTH,2VTI,2VTJ,2VTL,2VTM,2VTN,2VTO,2VTP,2VTQ,2VTR,2VTS,2VTT,2VU3,2VV9,2W05,2W06,2W17,2W1H,2WEV,2WFY,2WHB,2WIH,2WIP,2WMA,2WMB,2WPA,2WXV,2X1N,2XMY,2XNB,3BHT,3BHU,3BHV,3DDP,3DDQ,3DOG,3EID,3EJ1,3EOC,3EZR,3EZV,3F5X,3FZ1,3IG7,3IGG,3LE6,3LFN,3LFQ,3LFS,3MY5,3NS9,3PJ8,3PXF,3PXQ,3PXR,3PXY,3PXZ,3PY0,3PY1,3QHR,3QHW,3QL8,3QQF,3QQG,3QQH,3QQJ,3QQK,3QQL,3QRT,3QRU,3QTQ,3QTR,3QTS,3QTU,3QTW,3QTX,3QTZ,3QU0,3QWJ,3QWK,3QX2,3QX4,3QXO,3QXP,3QZF,3QZG,3QZH,3QZI,3R1Q,3R1S,3R1Y,3R28,3R6X,3R71,3R73,3R7E,3R7I,3R7U,3R7V,3R7Y,3R83,3R8L,3R8M,3R8P,3R8U,3R8V,3R8Z,3R9D,3R9H,3R9N,3R9O,3RAH,3RAI,3RAK,3RAL,3RJC,3RK5,3RK7,3RK9,3RKB,3RM6,3RM7,3RMF,3RNI,3ROY,3RPO,3RPR,3RPV,3RPY,3RZB,3S00,3S0O,3S1H,3S2P,3SQQ,3SW4,3SW7,3TI1,3TIY,3TIZ,3TNW,3ULI,3UNJ,3UNK,3WBL,4ACM,4BCK,4BCM,4BCN,4BCO,4BCP,4BCQ,4BGH,4BZD,4CFM,4CFN,4CFU,4CFV,4CFW,4CFX,4D1X,4D1Z,4EK3,4EK4,4EK5,4EK6,4EK8,4EOQ,4EOR,4EOS,4ERW,4EZ3,4EZ7,4FKG,4FKI,4FKJ,4FKL,4FKO,4FKP,4FKQ,4FKR,4FKS,4FKT,4FKU,4FKV,4FKW,4FX3,4GCJ,4I3Z,4II5,4KD1,4LYN,4NJ3,4RJ3,5A14,5AND,5ANE,5ANG,5ANI,5ANJ,5ANK,5ANO,5CYI,5D1J,5FP5,5FP6,5IEV,5IEX,5IEY,5IF1,5JQ5,5JQ8,5K4J,5L2W,5LMK,5MHQ,5NEV,5OO0,5OSJ,5UQ1,5UQ2,5UQ3,6ATH,6GUB,6GUC,6GUE,6GUF,6GUH,6GUK,6GVA,6INL,6JGM,6OQI,6P3W,6Q3B,6Q3C,6Q3F,6Q48,6Q49,6Q4A,6Q4B,6Q4C,6Q4D,6Q4E,6Q4F,6Q4H,6Q4J,6Q4K,6RIJ,6SG4,7ACK,7B5L,7B5R,7B7S,7E34,7KJS,7M2F,7NVQ

> <UniProt (SwissProt) Recommended Name of Target Chain>
Cyclin-dependent kinase 2

> <UniProt (SwissProt) Entry Name of Target Chain>
CDK2_HUMAN

> <UniProt (SwissProt) Primary ID of Target Chain>
P24941

> <UniProt (SwissProt) Secondary ID(s) of Target Chain>
A8K7C6,O75100

> <UniProt (SwissProt) Alternative ID(s) of Target Chain>


> <UniProt (TrEMBL) Submitted Name of Target Chain>


> <UniProt (TrEMBL) Entry Name of Target Chain>


> <UniProt (TrEMBL) Primary ID of Target Chain>
A0A024RB77

> <UniProt (TrEMBL) Secondary ID(s) of Target Chain>


> <UniProt (TrEMBL) Alternative ID(s) of Target Chain>


$$$$
BindingDB_50389117_mol_1

Vconf v2.0 Academic SN VC001-00000579
 62 65  0  0  0  0  0  0  0  0999 V2000
   21.4330   -6.0770    0.5480 C   0  0  0  0  0  0  0  0  0  0  0
   22.4290   -5.0250    0.0200 C   0  0  0  0  0  0  0  0  0  0  0
   22.1040   -7.0110    1.5760 C   0  0  0  0  0  0  0  0  0  0  0
   20.0040   -4.5830    2.1530 N   0  0  0  0  0  0  0  0  0  0  0
   18.7110   -4.3980    2.1290 N   0  0  0  0  0  0  0  0  0  0  0
   18.1000   -5.0850    1.1370 C   0  0  0  0  0  0  0  0  0  0  0
   16.7880   -5.1360    0.8120 N   0  0  0  0  0  0  0  0  0  0  0
   20.2710   -5.4230    1.1420 C   0  0  0  0  0  0  0  0  0  0  0
   19.1260   -5.7510    0.5000 C   0  0  0  0  0  0  0  0  0  0  0
   19.3450   -6.6600   -0.6040 C   0  0  0  0  0  0  0  0  0  0  0
   20.7770   -6.8100   -0.5180 N   0  0  0  0  0  0  0  0  0  0  0
   21.4380   -7.6180   -1.3850 C   0  0  0  0  0  0  0  0  0  0  0
   22.7890   -7.7480   -1.3000 O   0  0  0  0  0  0  0  0  0  0  0
   20.8040   -8.2440   -2.2650 O   0  0  0  0  0  0  0  0  0  0  0
   15.7950   -4.4680    1.4560 C   0  0  0  0  0  0  0  0  0  0  0
   14.4500   -4.5950    1.0300 C   0  0  0  0  0  0  0  0  0  0  0
   16.0650   -3.7380    2.4410 O   0  0  0  0  0  0  0  0  0  0  0
   13.3860   -4.2310    1.8870 C   0  0  0  0  0  0  0  0  0  0  0
   12.0490   -4.3570    1.4740 C   0  0  0  0  0  0  0  0  0  0  0
   11.7520   -4.8500    0.1920 C   0  0  0  0  0  0  0  0  0  0  0
   12.7970   -5.2130   -0.6740 C   0  0  0  0  0  0  0  0  0  0  0
   14.1340   -5.0860   -0.2580 C   0  0  0  0  0  0  0  0  0  0  0
   23.4430   -8.9550   -1.7120 C   0  0  2  0  0  0  0  0  0  0  0
   23.2910  -10.0450   -0.6240 C   0  0  0  0  0  0  0  0  0  0  0
   24.8720   -8.6460   -1.9450 C   0  0  0  0  0  0  0  0  0  0  0
   25.6560   -8.0620   -0.9270 C   0  0  0  0  0  0  0  0  0  0  0
   27.0130   -7.7720   -1.1470 C   0  0  0  0  0  0  0  0  0  0  0
   27.6000   -8.0610   -2.3900 C   0  0  0  0  0  0  0  0  0  0  0
   26.8290   -8.6370   -3.4120 C   0  0  0  0  0  0  0  0  0  0  0
   25.4710   -8.9260   -3.1910 C   0  0  0  0  0  0  0  0  0  0  0
   21.8770  -10.4170   -0.3980 N   0  0  0  0  0  0  0  0  0  0  0
   21.3800  -11.3060   -1.4650 C   0  0  0  0  0  0  0  0  0  0  0
   21.7340  -11.0940    0.9030 C   0  0  0  0  0  0  0  0  0  0  0
   10.5130   -4.9680   -0.1930 F   0  0  0  0  0  0  0  0  0  0  0
   21.9550   -4.4110   -0.7480 H   0  0  0  0  0  0  0  0  0  0  0
   22.7600   -4.3830    0.8370 H   0  0  0  0  0  0  0  0  0  0  0
   23.3010   -5.5170   -0.4110 H   0  0  0  0  0  0  0  0  0  0  0
   21.4050   -7.7880    1.8910 H   0  0  0  0  0  0  0  0  0  0  0
   22.9810   -7.4840    1.1360 H   0  0  0  0  0  0  0  0  0  0  0
   22.4200   -6.4380    2.4490 H   0  0  0  0  0  0  0  0  0  0  0
   18.2340   -3.8290    2.7550 H   0  0  0  0  0  0  0  0  0  0  0
   16.5400   -5.6950    0.0610 H   0  0  0  0  0  0  0  0  0  0  0
   18.8310   -7.6080   -0.4390 H   0  0  0  0  0  0  0  0  0  0  0
   19.0440   -6.2070   -1.5500 H   0  0  0  0  0  0  0  0  0  0  0
   13.5790   -3.8720    2.8240 H   0  0  0  0  0  0  0  0  0  0  0
   11.2950   -4.0910    2.1080 H   0  0  0  0  0  0  0  0  0  0  0
   12.5880   -5.5700   -1.6070 H   0  0  0  0  0  0  0  0  0  0  0
   14.8740   -5.3520   -0.9090 H   0  0  0  0  0  0  0  0  0  0  0
   23.0010   -9.3180   -2.6420 H   0  0  0  0  0  0  0  0  0  0  0
   23.8630  -10.9320   -0.9060 H   0  0  0  0  0  0  0  0  0  0  0
   23.7040   -9.6540    0.3080 H   0  0  0  0  0  0  0  0  0  0  0
   25.2370   -7.8450   -0.0220 H   0  0  0  0  0  0  0  0  0  0  0
   27.5720   -7.3510   -0.4040 H   0  0  0  0  0  0  0  0  0  0  0
   28.5860   -7.8510   -2.5500 H   0  0  0  0  0  0  0  0  0  0  0
   27.2540   -8.8450   -4.3160 H   0  0  0  0  0  0  0  0  0  0  0
   24.9200   -9.3450   -3.9400 H   0  0  0  0  0  0  0  0  0  0  0
   20.3390  -11.5660   -1.2680 H   0  0  0  0  0  0  0  0  0  0  0
   21.4280  -10.8030   -2.4300 H   0  0  0  0  0  0  0  0  0  0  0
   21.9740  -12.2200   -1.5080 H   0  0  0  0  0  0  0  0  0  0  0
   20.6890  -11.3620    1.0670 H   0  0  0  0  0  0  0  0  0  0  0
   22.3460  -11.9970    0.9330 H   0  0  0  0  0  0  0  0  0  0  0
   22.0470  -10.4220    1.7040 H   0  0  0  0  0  0  0  0  0  0  0
  1  2  1  0  0  0  0
  1  3  1  0  0  0  0
  1  8  1  0  0  0  0
  1 11  1  0  0  0  0
  2 35  1  0  0  0  0
  2 36  1  0  0  0  0
  2 37  1  0  0  0  0
  3 38  1  0  0  0  0
  3 39  1  0  0  0  0
  3 40  1  0  0  0  0
  4  5  1  0  0  0  0
  4  8  2  0  0  0  0
  5  6  1  0  0  0  0
  5 41  1  0  0  0  0
  6  7  1  0  0  0  0
  6  9  2  0  0  0  0
  7 15  1  0  0  0  0
  7 42  1  0  0  0  0
  8  9  1  0  0  0  0
  9 10  1  0  0  0  0
 10 11  1  0  0  0  0
 10 43  1  0  0  0  0
 10 44  1  0  0  0  0
 11 12  1  0  0  0  0
 12 13  1  0  0  0  0
 12 14  2  0  0  0  0
 23 13  1  1  0  0  0
 15 16  1  0  0  0  0
 15 17  2  0  0  0  0
 16 18  2  0  0  0  0
 16 22  1  0  0  0  0
 18 19  1  0  0  0  0
 18 45  1  0  0  0  0
 19 20  2  0  0  0  0
 19 46  1  0  0  0  0
 20 21  1  0  0  0  0
 20 34  1  0  0  0  0
 21 22  2  0  0  0  0
 21 47  1  0  0  0  0
 22 48  1  0  0  0  0
 23 24  1  0  0  0  0
 23 25  1  0  0  0  0
 23 49  1  0  0  0  0
 24 31  1  0  0  0  0
 24 50  1  0  0  0  0
 24 51  1  0  0  0  0
 25 26  2  0  0  0  0
 25 30  1  0  0  0  0
 26 27  1  0  0  0  0
 26 52  1  0  0  0  0
 27 28  2  0  0  0  0
 27 53  1  0  0  0  0
 28 29  1  0  0  0  0
 28 54  1  0  0  0  0
 29 30  2  0  0  0  0
 29 55  1  0  0  0  0
 30 56  1  0  0  0  0
 31 32  1  0  0  0  0
 31 33  1  0  0  0  0
 32 57  1  0  0  0  0
 32 58  1  0  0  0  0
 32 59  1  0  0  0  0
 33 60  1  0  0  0  0
 33 61  1  0  0  0  0
 33 62  1  0  0  0  0
M  END
> <From>
www.bindingDB.org

> <BindingDB Reactant_set_id>
50948471

> <Ligand InChI>
InChI=1S/C25H28FN5O3/c1-25(2)21-19(22(29-28-21)27-23(32)17-10-12-18(26)13-11-17)14-31(25)24(33)34-20(15-30(3)4)16-8-6-5-7-9-16/h5-13,20H,14-15H2,1-4H3,(H2,27,28,29,32)/t20-/m1/s1

> <Ligand InChI Key>
XFMZYCHKCPPZQW-HXUWFJFHSA-N

> <BindingDB MonomerID>
50389117

> <BindingDB Ligand Name>
CHEMBL2064562

> <Target Name Assigned by Curator or DataSource>
Cyclin-dependent kinase 2

> <Target Source Organism According to Curator or DataSource>
Homo sapiens

> <Ki (nM)>
 1160

> <IC50 (nM)>


> <Kd (nM)>


> <EC50 (nM)>


> <kon (M-1-s-1)>


> <koff (s-1)>


> <pH>


> <Temp C>


> <Curation/DataSource>
ChEMBL

> <Article DOI>
10.1021/jm300204j

> <PMID>
22554206

> <PubChem AID>


> <Patent Number>


> <Authors>
Guo, C; McAlpine, I; Zhang, J; Knighton, DD; Kephart, S; Johnson, MC; Li, H; Bouzida, D; Yang, A; Dong, L; Marakovits, J; Tikhe, J; Richardson, P; Guo, LC; Kania, R; Edwards, MP; Kraynov, E; Christensen, J; Piraino, J; Lee, J; Dagostino, E; Del-Carmen, C; Deng, YL; Smeal, T; Murray, BW

> <Institution>
Pfizer Inc

> <Link to Ligand in BindingDB>
http://www.bindingdb.org/bind/chemsearch/marvin/MolStructure.jsp?monomerid=50389117

> <Link to Ligand-Target Pair in BindingDB>
http://www.bindingdb.org/jsp/dbsearch/PrimarySearch_ki.jsp?energyterm=kJ/mole&tag=pol&polymerid=796&target=Cyclin-dependent+kinase+2&column=ki&startPg=0&Increment=50&submit=Search

> <Link to Ligand-Target Pair in BindingDB>
http://www.bindingdb.org/jsp/dbsearch/PrimarySearch_ki.jsp?energyterm=kJ/mole&tag=r21&monomerid=50389117&enzyme=Cyclin-dependent+kinase+2&column=ki&startPg=0&Increment=50&submit=Search

> <Ligand HET ID in PDB>


> <PDB ID(s) for Ligand-Target Complex>


> <PubChem CID>
16202256

> <PubChem SID>
160868200

> <ChEBI ID of Ligand>


> <ChEMBL ID of Ligand>
CHEMBL2064562

> <DrugBank ID of Ligand>


> <IUPHAR_GRAC ID of Ligand>


> <KEGG ID of Ligand>


> <ZINC ID of Ligand>
ZINC43170004

> <Number of Protein Chains in Target (bigger than 1 implies a multichain complex)>
1

> <BindingDB Target Chain Sequence>
MENFQKVEKIGEGTYGVVYKARNKLTGEVVALKKIRLDTETEGVPSTAIREISLLKELNHPNIVKLLDVIHTENKLYLVFEFLHQDLKKFMDASALTGIPLPLIKSYLFQLLQGLAFCHSHRVLHRDLKPQNLLINTEGAIKLADFGLARAFGVPVRTYTHEVVTLWYRAPEILLGCKYYSTAVDIWSLGCIFAEMVTRRALFPGDSEIDQLFRIFRTLGTPDEVVWPGVTSMPDYKPSFPKWARQDFSKVVPPLDEDGRSLLSQMLHYDPNKRISAKAALAHPFFQDVTKPVPHLRL

> <PDB ID(s) of Target Chain>
1CKP,1DI8,1DM2,1E1V,1E1X,1E9H,1F5Q,1FIN,1FQ1,1FVT,1FVV,1G5S,1GIH,1GY3,1GZ8,1H00,1H01,1H07,1H08,1H0V,1H0W,1H1P,1H1Q,1H1R,1H1S,1H24,1H25,1H26,1H27,1H28,1HCK,1HCL,1JST,1JSU,1JSV,1JVP,1KE5,1KE6,1KE7,1KE8,1KE9,1OGU,1OI9,1OIQ,1OIR,1OIU,1OIY,1OKV,1OKW,1OL1,1OL2,1P2A,1P5E,1PF8,1PKD,1PW2,1PXI,1PXJ,1PXK,1PXL,1PXM,1PXN,1PXO,1PXP,1PYE,1QMZ,1R78,1URC,1URW,1V1K,1VYW,1VYZ,1W0X,1W8C,1W98,1WCC,1Y8Y,1Y91,1YKR,2A0C,2A4L,2B52,2B53,2B54,2B55,2BHE,2BHH,2BKZ,2BPM,2BTR,2BTS,2C4G,2C5N,2C5O,2C5V,2C5X,2C5Y,2C68,2C69,2C6I,2C6K,2C6L,2C6M,2C6O,2C6T,2CCH,2CCI,2CJM,2CLX,2DUV,2EXM,2FVD,2G9X,2I40,2J9M,2JGZ,2R3F,2R3G,2R3H,2R3I,2R3J,2R3K,2R3L,2R3M,2R3N,2R3O,2R3P,2R3Q,2R3R,2R64,2UUE,2UZB,2UZD,2UZE,2UZL,2UZN,2UZO,2V0D,2V22,2VTA,2VTH,2VTI,2VTJ,2VTL,2VTM,2VTN,2VTO,2VTP,2VTQ,2VTR,2VTS,2VTT,2VU3,2VV9,2W05,2W06,2W17,2W1H,2WEV,2WFY,2WHB,2WIH,2WIP,2WMA,2WMB,2WPA,2WXV,2X1N,2XMY,2XNB,3BHT,3BHU,3BHV,3DDP,3DDQ,3DOG,3EID,3EJ1,3EOC,3EZR,3EZV,3F5X,3FZ1,3IG7,3IGG,3LE6,3LFN,3LFQ,3LFS,3MY5,3NS9,3PJ8,3PXF,3PXQ,3PXR,3PXY,3PXZ,3PY0,3PY1,3QHR,3QHW,3QL8,3QQF,3QQG,3QQH,3QQJ,3QQK,3QQL,3QRT,3QRU,3QTQ,3QTR,3QTS,3QTU,3QTW,3QTX,3QTZ,3QU0,3QWJ,3QWK,3QX2,3QX4,3QXO,3QXP,3QZF,3QZG,3QZH,3QZI,3R1Q,3R1S,3R1Y,3R28,3R6X,3R71,3R73,3R7E,3R7I,3R7U,3R7V,3R7Y,3R83,3R8L,3R8M,3R8P,3R8U,3R8V,3R8Z,3R9D,3R9H,3R9N,3R9O,3RAH,3RAI,3RAK,3RAL,3RJC,3RK5,3RK7,3RK9,3RKB,3RM6,3RM7,3RMF,3RNI,3ROY,3RPO,3RPR,3RPV,3RPY,3RZB,3S00,3S0O,3S1H,3S2P,3SQQ,3SW4,3SW7,3TI1,3TIY,3TIZ,3TNW,3ULI,3UNJ,3UNK,3WBL,4ACM,4BCK,4BCM,4BCN,4BCO,4BCP,4BCQ,4BGH,4BZD,4CFM,4CFN,4CFU,4CFV,4CFW,4CFX,4D1X,4D1Z,4EK3,4EK4,4EK5,4EK6,4EK8,4EOQ,4EOR,4EOS,4ERW,4EZ3,4EZ7,4FKG,4FKI,4FKJ,4FKL,4FKO,4FKP,4FKQ,4FKR,4FKS,4FKT,4FKU,4FKV,4FKW,4FX3,4GCJ,4I3Z,4II5,4KD1,4LYN,4NJ3,4RJ3,5A14,5AND,5ANE,5ANG,5ANI,5ANJ,5ANK,5ANO,5CYI,5D1J,5FP5,5FP6,5IEV,5IEX,5IEY,5IF1,5JQ5,5JQ8,5K4J,5L2W,5LMK,5MHQ,5NEV,5OO0,5OSJ,5UQ1,5UQ2,5UQ3,6ATH,6GUB,6GUC,6GUE,6GUF,6GUH,6GUK,6GVA,6INL,6JGM,6OQI,6P3W,6Q3B,6Q3C,6Q3F,6Q48,6Q49,6Q4A,6Q4B,6Q4C,6Q4D,6Q4E,6Q4F,6Q4H,6Q4J,6Q4K,6RIJ,6SG4,7ACK,7B5L,7B5R,7B7S,7E34,7KJS,7M2F,7NVQ

> <UniProt (SwissProt) Recommended Name of Target Chain>
Cyclin-dependent kinase 2

> <UniProt (SwissProt) Entry Name of Target Chain>
CDK2_HUMAN

> <UniProt (SwissProt) Primary ID of Target Chain>
P24941

> <UniProt (SwissProt) Secondary ID(s) of Target Chain>
A8K7C6,O75100

> <UniProt (SwissProt) Alternative ID(s) of Target Chain>


> <UniProt (TrEMBL) Submitted Name of Target Chain>


> <UniProt (TrEMBL) Entry Name of Target Chain>


> <UniProt (TrEMBL) Primary ID of Target Chain>
A0A024RB77

> <UniProt (TrEMBL) Secondary ID(s) of Target Chain>


> <UniProt (TrEMBL) Alternative ID(s) of Target Chain>


$$$$
O6-Substituted

Vconf v2.0 Academic SN VC001-00000579
 35 37  0  0  0  0  0  0  0  0999 V2000
    0.4400    2.6030    0.0260 C   0  0  0  0  0  0  0  0  0  0  0
    0.0110    0.4490   -0.9010 C   0  0  0  0  0  0  0  0  0  0  0
    1.7590    2.2040    0.2630 C   0  0  0  0  0  0  0  0  0  0  0
    2.1520    0.9260   -0.0970 C   0  0  0  0  0  0  0  0  0  0  0
    3.8310    1.9420    0.7740 C   0  0  0  0  0  0  0  0  0  0  0
    2.8130    2.8200    0.8010 N   0  0  0  0  0  0  0  0  0  0  0
    3.4450    0.7720    0.2260 N   0  0  0  0  0  0  0  0  0  0  0
   -0.3960    1.6990   -0.5540 N   0  0  0  0  0  0  0  0  0  0  0
    1.2900    0.0570   -0.6720 N   0  0  0  0  0  0  0  0  0  0  0
   -0.8520   -0.3970   -1.4690 N   0  0  0  0  0  0  0  0  0  0  0
    0.0430    3.8550    0.3720 O   0  0  0  0  0  0  0  0  0  0  0
   -1.3160    4.2470    0.1640 C   0  0  0  0  0  0  0  0  0  0  0
   -1.4970    5.7070    0.6110 C   0  0  0  0  0  0  0  0  0  0  0
   -0.6250    6.6430   -0.2470 C   0  0  0  0  0  0  0  0  0  0  0
   -0.8170    8.1040    0.1870 C   0  0  0  0  0  0  0  0  0  0  0
   -2.2950    8.5070    0.0780 C   0  0  0  0  0  0  0  0  0  0  0
   -3.1680    7.5740    0.9310 C   0  0  0  0  0  0  0  0  0  0  0
   -2.9770    6.1140    0.4960 C   0  0  0  0  0  0  0  0  0  0  0
    4.7710    2.1350    1.1230 H   0  0  0  0  0  0  0  0  0  0  0
    2.8380    3.7260    1.1450 H   0  0  0  0  0  0  0  0  0  0  0
   -0.5610   -1.2880   -1.7170 H   0  0  0  0  0  0  0  0  0  0  0
   -1.7650   -0.1190   -1.6330 H   0  0  0  0  0  0  0  0  0  0  0
   -1.5770    4.1570   -0.8920 H   0  0  0  0  0  0  0  0  0  0  0
   -1.9750    3.6080    0.7540 H   0  0  0  0  0  0  0  0  0  0  0
   -1.1880    5.7910    1.6540 H   0  0  0  0  0  0  0  0  0  0  0
   -0.9000    6.5390   -1.2970 H   0  0  0  0  0  0  0  0  0  0  0
    0.4250    6.3720   -0.1270 H   0  0  0  0  0  0  0  0  0  0  0
   -0.4820    8.2230    1.2180 H   0  0  0  0  0  0  0  0  0  0  0
   -0.2190    8.7510   -0.4560 H   0  0  0  0  0  0  0  0  0  0  0
   -2.6120    8.4470   -0.9640 H   0  0  0  0  0  0  0  0  0  0  0
   -2.4150    9.5320    0.4270 H   0  0  0  0  0  0  0  0  0  0  0
   -2.8920    7.6790    1.9820 H   0  0  0  0  0  0  0  0  0  0  0
   -4.2160    7.8520    0.8110 H   0  0  0  0  0  0  0  0  0  0  0
   -3.3100    5.9990   -0.5370 H   0  0  0  0  0  0  0  0  0  0  0
   -3.5810    5.4700    1.1360 H   0  0  0  0  0  0  0  0  0  0  0
  1  3  2  0  0  0  0
  1  8  1  0  0  0  0
  1 11  1  0  0  0  0
  2  8  2  0  0  0  0
  2  9  1  0  0  0  0
  2 10  1  0  0  0  0
  3  4  1  0  0  0  0
  3  6  1  0  0  0  0
  4  7  1  0  0  0  0
  4  9  2  0  0  0  0
  5  6  1  0  0  0  0
  5  7  2  0  0  0  0
  5 19  1  0  0  0  0
  6 20  1  0  0  0  0
 10 21  1  0  0  0  0
 10 22  1  0  0  0  0
 11 12  1  0  0  0  0
 12 13  1  0  0  0  0
 12 23  1  0  0  0  0
 12 24  1  0  0  0  0
 13 14  1  0  0  0  0
 13 18  1  0  0  0  0
 13 25  1  0  0  0  0
 14 15  1  0  0  0  0
 14 26  1  0  0  0  0
 14 27  1  0  0  0  0
 15 16  1  0  0  0  0
 15 28  1  0  0  0  0
 15 29  1  0  0  0  0
 16 17  1  0  0  0  0
 16 30  1  0  0  0  0
 16 31  1  0  0  0  0
 17 18  1  0  0  0  0
 17 32  1  0  0  0  0
 17 33  1  0  0  0  0
 18 34  1  0  0  0  0
 18 35  1  0  0  0  0
M  END
> <From>
www.bindingDB.org

> <BindingDB Reactant_set_id>
50357146

> <Ligand InChI>
InChI=1S/C12H17N5O/c13-12-16-10-9(14-7-15-10)11(17-12)18-6-8-4-2-1-3-5-8/h7-8H,1-6H2,(H3,13,14,15,16,17)

> <Ligand InChI Key>
MWGXGTJJAOZBNW-UHFFFAOYSA-N

> <BindingDB MonomerID>
5485

> <BindingDB Ligand Name>
6-(cyclohexylmethoxy)-9H-purin-2-amine::CHEMBL269881::NU2058

> <Target Name Assigned by Curator or DataSource>
Cyclin-dependent kinase 2

> <Target Source Organism According to Curator or DataSource>
Homo sapiens

> <Ki (nM)>
 1200

> <IC50 (nM)>


> <Kd (nM)>


> <EC50 (nM)>


> <kon (M-1-s-1)>


> <koff (s-1)>


> <pH>


> <Temp C>


> <Curation/DataSource>
ChEMBL

> <Article DOI>
10.1021/jm060190+

> <PMID>
16913703

> <PubChem AID>


> <Patent Number>


> <Authors>
Heady, L; Fernandez-Serra, M; Mancera, RL; Joyce, S; Venkitaraman, AR; Artacho, E; Skylaris, CK; Ciacchi, LC; Payne, MC

> <Institution>
University of Cambridge

> <Link to Ligand in BindingDB>
http://www.bindingdb.org/bind/chemsearch/marvin/MolStructure.jsp?monomerid=5485

> <Link to Ligand-Target Pair in BindingDB>
http://www.bindingdb.org/jsp/dbsearch/PrimarySearch_ki.jsp?energyterm=kJ/mole&tag=pol&polymerid=796&target=Cyclin-dependent+kinase+2&column=ki&startPg=0&Increment=50&submit=Search

> <Link to Ligand-Target Pair in BindingDB>
http://www.bindingdb.org/jsp/dbsearch/PrimarySearch_ki.jsp?energyterm=kJ/mole&tag=r21&monomerid=5485&enzyme=Cyclin-dependent+kinase+2&column=ki&startPg=0&Increment=50&submit=Search

> <Ligand HET ID in PDB>


> <PDB ID(s) for Ligand-Target Complex>
1E1V,1H1P

> <PubChem CID>
4564

> <PubChem SID>
8035104

> <ChEBI ID of Ligand>


> <ChEMBL ID of Ligand>
CHEMBL269881

> <DrugBank ID of Ligand>


> <IUPHAR_GRAC ID of Ligand>


> <KEGG ID of Ligand>


> <ZINC ID of Ligand>
ZINC03873285

> <Number of Protein Chains in Target (bigger than 1 implies a multichain complex)>
1

> <BindingDB Target Chain Sequence>
MENFQKVEKIGEGTYGVVYKARNKLTGEVVALKKIRLDTETEGVPSTAIREISLLKELNHPNIVKLLDVIHTENKLYLVFEFLHQDLKKFMDASALTGIPLPLIKSYLFQLLQGLAFCHSHRVLHRDLKPQNLLINTEGAIKLADFGLARAFGVPVRTYTHEVVTLWYRAPEILLGCKYYSTAVDIWSLGCIFAEMVTRRALFPGDSEIDQLFRIFRTLGTPDEVVWPGVTSMPDYKPSFPKWARQDFSKVVPPLDEDGRSLLSQMLHYDPNKRISAKAALAHPFFQDVTKPVPHLRL

> <PDB ID(s) of Target Chain>
1CKP,1DI8,1DM2,1E1V,1E1X,1E9H,1F5Q,1FIN,1FQ1,1FVT,1FVV,1G5S,1GIH,1GY3,1GZ8,1H00,1H01,1H07,1H08,1H0V,1H0W,1H1P,1H1Q,1H1R,1H1S,1H24,1H25,1H26,1H27,1H28,1HCK,1HCL,1JST,1JSU,1JSV,1JVP,1KE5,1KE6,1KE7,1KE8,1KE9,1OGU,1OI9,1OIQ,1OIR,1OIU,1OIY,1OKV,1OKW,1OL1,1OL2,1P2A,1P5E,1PF8,1PKD,1PW2,1PXI,1PXJ,1PXK,1PXL,1PXM,1PXN,1PXO,1PXP,1PYE,1QMZ,1R78,1URC,1URW,1V1K,1VYW,1VYZ,1W0X,1W8C,1W98,1WCC,1Y8Y,1Y91,1YKR,2A0C,2A4L,2B52,2B53,2B54,2B55,2BHE,2BHH,2BKZ,2BPM,2BTR,2BTS,2C4G,2C5N,2C5O,2C5V,2C5X,2C5Y,2C68,2C69,2C6I,2C6K,2C6L,2C6M,2C6O,2C6T,2CCH,2CCI,2CJM,2CLX,2DUV,2EXM,2FVD,2G9X,2I40,2J9M,2JGZ,2R3F,2R3G,2R3H,2R3I,2R3J,2R3K,2R3L,2R3M,2R3N,2R3O,2R3P,2R3Q,2R3R,2R64,2UUE,2UZB,2UZD,2UZE,2UZL,2UZN,2UZO,2V0D,2V22,2VTA,2VTH,2VTI,2VTJ,2VTL,2VTM,2VTN,2VTO,2VTP,2VTQ,2VTR,2VTS,2VTT,2VU3,2VV9,2W05,2W06,2W17,2W1H,2WEV,2WFY,2WHB,2WIH,2WIP,2WMA,2WMB,2WPA,2WXV,2X1N,2XMY,2XNB,3BHT,3BHU,3BHV,3DDP,3DDQ,3DOG,3EID,3EJ1,3EOC,3EZR,3EZV,3F5X,3FZ1,3IG7,3IGG,3LE6,3LFN,3LFQ,3LFS,3MY5,3NS9,3PJ8,3PXF,3PXQ,3PXR,3PXY,3PXZ,3PY0,3PY1,3QHR,3QHW,3QL8,3QQF,3QQG,3QQH,3QQJ,3QQK,3QQL,3QRT,3QRU,3QTQ,3QTR,3QTS,3QTU,3QTW,3QTX,3QTZ,3QU0,3QWJ,3QWK,3QX2,3QX4,3QXO,3QXP,3QZF,3QZG,3QZH,3QZI,3R1Q,3R1S,3R1Y,3R28,3R6X,3R71,3R73,3R7E,3R7I,3R7U,3R7V,3R7Y,3R83,3R8L,3R8M,3R8P,3R8U,3R8V,3R8Z,3R9D,3R9H,3R9N,3R9O,3RAH,3RAI,3RAK,3RAL,3RJC,3RK5,3RK7,3RK9,3RKB,3RM6,3RM7,3RMF,3RNI,3ROY,3RPO,3RPR,3RPV,3RPY,3RZB,3S00,3S0O,3S1H,3S2P,3SQQ,3SW4,3SW7,3TI1,3TIY,3TIZ,3TNW,3ULI,3UNJ,3UNK,3WBL,4ACM,4BCK,4BCM,4BCN,4BCO,4BCP,4BCQ,4BGH,4BZD,4CFM,4CFN,4CFU,4CFV,4CFW,4CFX,4D1X,4D1Z,4EK3,4EK4,4EK5,4EK6,4EK8,4EOQ,4EOR,4EOS,4ERW,4EZ3,4EZ7,4FKG,4FKI,4FKJ,4FKL,4FKO,4FKP,4FKQ,4FKR,4FKS,4FKT,4FKU,4FKV,4FKW,4FX3,4GCJ,4I3Z,4II5,4KD1,4LYN,4NJ3,4RJ3,5A14,5AND,5ANE,5ANG,5ANI,5ANJ,5ANK,5ANO,5CYI,5D1J,5FP5,5FP6,5IEV,5IEX,5IEY,5IF1,5JQ5,5JQ8,5K4J,5L2W,5LMK,5MHQ,5NEV,5OO0,5OSJ,5UQ1,5UQ2,5UQ3,6ATH,6GUB,6GUC,6GUE,6GUF,6GUH,6GUK,6GVA,6INL,6JGM,6OQI,6P3W,6Q3B,6Q3C,6Q3F,6Q48,6Q49,6Q4A,6Q4B,6Q4C,6Q4D,6Q4E,6Q4F,6Q4H,6Q4J,6Q4K,6RIJ,6SG4,7ACK,7B5L,7B5R,7B7S,7E34,7KJS,7M2F,7NVQ

> <UniProt (SwissProt) Recommended Name of Target Chain>
Cyclin-dependent kinase 2

> <UniProt (SwissProt) Entry Name of Target Chain>
CDK2_HUMAN

> <UniProt (SwissProt) Primary ID of Target Chain>
P24941

> <UniProt (SwissProt) Secondary ID(s) of Target Chain>
A8K7C6,O75100

> <UniProt (SwissProt) Alternative ID(s) of Target Chain>


> <UniProt (TrEMBL) Submitted Name of Target Chain>


> <UniProt (TrEMBL) Entry Name of Target Chain>


> <UniProt (TrEMBL) Primary ID of Target Chain>
A0A024RB77

> <UniProt (TrEMBL) Secondary ID(s) of Target Chain>


> <UniProt (TrEMBL) Alternative ID(s) of Target Chain>


$$$$
ttt_mol_1

Vconf v2.1
 52 56  0  0  0  0  0  0  0  0999 V2000
    1.9030   -2.1310    0.2090 C   0  0  0  0  0  0  0  0  0  0  0
    1.8700   -3.5370    0.3320 C   0  0  0  0  0  0  0  0  0  0  0
    0.7020   -4.1790    0.6070 N   0  0  0  0  0  0  0  0  0  0  0
    0.7120   -1.3970    0.3730 C   0  0  0  0  0  0  0  0  0  0  0
   -0.4780   -2.0920    0.6520 C   0  0  0  0  0  0  0  0  0  0  0
   -0.4480   -3.4800    0.7650 C   0  0  0  0  0  0  0  0  0  0  0
   -1.6850   -3.9170    1.0340 N   0  0  0  0  0  0  0  0  0  0  0
   -2.5120   -2.8590    1.0980 C   0  0  0  0  0  0  0  0  0  0  0
   -1.7960   -1.6820    0.8610 C   0  0  0  0  0  0  0  0  0  0  0
   -2.3270   -0.3790    0.8380 C   0  0  0  0  0  0  0  0  0  0  0
   -1.5360    0.6920    0.5870 N   0  0  0  0  0  0  0  0  0  0  0
   -2.0050    1.9620    0.5490 C   0  0  0  0  0  0  0  0  0  0  0
   -3.3700    2.2010    0.7850 C   0  0  0  0  0  0  0  0  0  0  0
   -4.1820    1.0880    1.0450 C   0  0  0  0  0  0  0  0  0  0  0
   -3.6470   -0.1570    1.0640 N   0  0  0  0  0  0  0  0  0  0  0
   -3.8750    3.4040    0.7650 F   0  0  0  0  0  0  0  0  0  0  0
   -1.1620    2.9880    0.2950 N   0  0  0  0  0  0  0  0  0  0  0
    0.2310    2.8250    0.0460 C   0  0  1  0  0  0  0  0  0  0  0
    0.4970    2.1680   -1.3300 C   0  0  2  0  0  0  0  0  0  0  0
    2.0110    1.9010   -1.4450 C   0  0  0  0  0  0  0  0  0  0  0
    2.7950    3.2260   -1.3500 C   0  0  0  0  0  0  0  0  0  0  0
    1.8240    4.4070   -1.1490 C   0  0  2  0  0  0  0  0  0  0  0
    0.9370    4.2080    0.1050 C   0  0  2  0  0  0  0  0  0  0  0
    3.0220   -1.5160   -0.0530 F   0  0  0  0  0  0  0  0  0  0  0
    1.7220    4.4100    1.4200 C   0  0  1  0  0  0  0  0  0  0  0
    0.7630    4.5260    2.6130 C   0  0  0  0  0  0  0  0  0  0  0
    2.6170    3.3340    1.6690 O   0  0  0  0  0  0  0  0  0  0  0
    0.1790    4.9930    0.0700 H   0  0  0  0  0  0  0  0  0  0  0
    0.0790    3.1310   -2.4600 C   0  0  0  0  0  0  0  0  0  0  0
    0.8880    4.4440   -2.3740 C   0  0  0  0  0  0  0  0  0  0  0
    2.7270   -4.0800    0.2160 H   0  0  0  0  0  0  0  0  0  0  0
    0.7190   -0.3800    0.2900 H   0  0  0  0  0  0  0  0  0  0  0
   -1.9400   -4.8440    1.1610 H   0  0  0  0  0  0  0  0  0  0  0
   -3.5130   -2.9120    1.2890 H   0  0  0  0  0  0  0  0  0  0  0
   -5.1800    1.2110    1.2200 H   0  0  0  0  0  0  0  0  0  0  0
   -1.5250    3.8870    0.3070 H   0  0  0  0  0  0  0  0  0  0  0
    0.6500    2.1770    0.8190 H   0  0  0  0  0  0  0  0  0  0  0
   -0.0460    1.2270   -1.4240 H   0  0  0  0  0  0  0  0  0  0  0
    2.2230    1.4180   -2.3990 H   0  0  0  0  0  0  0  0  0  0  0
    2.3240    1.2360   -0.6390 H   0  0  0  0  0  0  0  0  0  0  0
    3.3550    3.3780   -2.2730 H   0  0  0  0  0  0  0  0  0  0  0
    3.5050    3.1790   -0.5250 H   0  0  0  0  0  0  0  0  0  0  0
    2.3780    5.3440   -1.0790 H   0  0  0  0  0  0  0  0  0  0  0
    2.2970    5.3340    1.3500 H   0  0  0  0  0  0  0  0  0  0  0
    1.3350    4.7090    3.5230 H   0  0  0  0  0  0  0  0  0  0  0
    0.0730    5.3540    2.4520 H   0  0  0  0  0  0  0  0  0  0  0
    0.1960    3.6010    2.7270 H   0  0  0  0  0  0  0  0  0  0  0
    3.1420    3.4260    2.4910 H   0  0  0  0  0  0  0  0  0  0  0
    0.2580    2.6560   -3.4250 H   0  0  0  0  0  0  0  0  0  0  0
   -0.9860    3.3520   -2.3710 H   0  0  0  0  0  0  0  0  0  0  0
    1.4820    4.5660   -3.2810 H   0  0  0  0  0  0  0  0  0  0  0
    0.2040    5.2890   -2.2870 H   0  0  0  0  0  0  0  0  0  0  0
  1  2  2  0  0  0  0
  1  4  1  0  0  0  0
  1 24  1  0  0  0  0
  2  3  1  0  0  0  0
  2 31  1  0  0  0  0
  3  6  2  0  0  0  0
  4  5  2  0  0  0  0
  4 32  1  0  0  0  0
  5  6  1  0  0  0  0
  5  9  1  0  0  0  0
  6  7  1  0  0  0  0
  7  8  1  0  0  0  0
  7 33  1  0  0  0  0
  8  9  2  0  0  0  0
  8 34  1  0  0  0  0
  9 10  1  0  0  0  0
 10 11  2  0  0  0  0
 10 15  1  0  0  0  0
 11 12  1  0  0  0  0
 12 13  2  0  0  0  0
 12 17  1  0  0  0  0
 13 14  1  0  0  0  0
 13 16  1  0  0  0  0
 14 15  2  0  0  0  0
 14 35  1  0  0  0  0
 18 17  1  6  0  0  0
 17 36  1  0  0  0  0
 18 19  1  0  0  0  0
 18 23  1  0  0  0  0
 18 37  1  0  0  0  0
 19 20  1  0  0  0  0
 19 29  1  0  0  0  0
 19 38  1  0  0  0  0
 20 21  1  0  0  0  0
 20 39  1  0  0  0  0
 20 40  1  0  0  0  0
 21 22  1  0  0  0  0
 21 41  1  0  0  0  0
 21 42  1  0  0  0  0
 22 23  1  0  0  0  0
 22 30  1  0  0  0  0
 22 43  1  0  0  0  0
 23 25  1  0  0  0  0
 23 28  1  6  0  0  0
 25 26  1  0  0  0  0
 25 27  1  0  0  0  0
 25 44  1  0  0  0  0
 26 45  1  0  0  0  0
 26 46  1  0  0  0  0
 26 47  1  0  0  0  0
 27 48  1  0  0  0  0
 29 30  1  0  0  0  0
 29 49  1  0  0  0  0
 29 50  1  0  0  0  0
 30 51  1  0  0  0  0
 30 52  1  0  0  0  0
M  END
> <From>
www.bindingDB.org

> <BindingDB Reactant_set_id>
50304510

> <Ligand InChI>
InChI=1S/C21H23F2N5O/c1-10(29)17-11-2-4-12(5-3-11)18(17)27-21-16(23)9-26-20(28-21)15-8-25-19-14(15)6-13(22)7-24-19/h6-12,17-18,29H,2-5H2,1H3,(H,24,25)(H,26,27,28)/t10?,11?,12?,17-,18-/m0/s1

> <Ligand InChI Key>
UVHNIMCYDWMRAE-LOTSEXGMSA-N

> <BindingDB MonomerID>
50067537

> <BindingDB Ligand Name>
CHEMBL3401987

> <Target Name Assigned by Curator or DataSource>
Cyclin-dependent kinase 2

> <Target Source Organism According to Curator or DataSource>
Homo sapiens

> <Ki (nM)>
 1200

> <IC50 (nM)>


> <Kd (nM)>


> <EC50 (nM)>


> <kon (M-1-s-1)>


> <koff (s-1)>


> <pH>


> <Temp C>


> <Curation/DataSource>
ChEMBL

> <Article DOI>
10.1016/j.bmcl.2015.03.013

> <PMID>
25827523

> <PubChem AID>


> <Patent Number>


> <Authors>
Boyd, MJ; Bandarage, UK; Bennett, H; Byrn, RR; Davies, I; Gu, W; Jacobs, M; Ledeboer, MW; Ledford, B; Leeman, JR; Perola, E; Wang, T; Bennani, Y; Clark, MP; Charifson, PS

> <Institution>
Vertex Pharmaceuticals Inc

> <Link to Ligand in BindingDB>
http://www.bindingdb.org/bind/chemsearch/marvin/MolStructure.jsp?monomerid=50067537

> <Link to Ligand-Target Pair in BindingDB>
http://www.bindingdb.org/jsp/dbsearch/PrimarySearch_ki.jsp?energyterm=kJ/mole&tag=pol&polymerid=796&target=Cyclin-dependent+kinase+2&column=ki&startPg=0&Increment=50&submit=Search

> <Link to Ligand-Target Pair in BindingDB>
http://www.bindingdb.org/jsp/dbsearch/PrimarySearch_ki.jsp?energyterm=kJ/mole&tag=r21&monomerid=50067537&enzyme=Cyclin-dependent+kinase+2&column=ki&startPg=0&Increment=50&submit=Search

> <Ligand HET ID in PDB>


> <PDB ID(s) for Ligand-Target Complex>


> <PubChem CID>
118728823

> <PubChem SID>
103961976

> <ChEBI ID of Ligand>


> <ChEMBL ID of Ligand>
CHEMBL3401987

> <DrugBank ID of Ligand>


> <IUPHAR_GRAC ID of Ligand>


> <KEGG ID of Ligand>


> <ZINC ID of Ligand>
ZINC27424532

> <Number of Protein Chains in Target (bigger than 1 implies a multichain complex)>
1

> <BindingDB Target Chain Sequence>
MENFQKVEKIGEGTYGVVYKARNKLTGEVVALKKIRLDTETEGVPSTAIREISLLKELNHPNIVKLLDVIHTENKLYLVFEFLHQDLKKFMDASALTGIPLPLIKSYLFQLLQGLAFCHSHRVLHRDLKPQNLLINTEGAIKLADFGLARAFGVPVRTYTHEVVTLWYRAPEILLGCKYYSTAVDIWSLGCIFAEMVTRRALFPGDSEIDQLFRIFRTLGTPDEVVWPGVTSMPDYKPSFPKWARQDFSKVVPPLDEDGRSLLSQMLHYDPNKRISAKAALAHPFFQDVTKPVPHLRL

> <PDB ID(s) of Target Chain>
1CKP,1DI8,1DM2,1E1V,1E1X,1E9H,1F5Q,1FIN,1FQ1,1FVT,1FVV,1G5S,1GIH,1GY3,1GZ8,1H00,1H01,1H07,1H08,1H0V,1H0W,1H1P,1H1Q,1H1R,1H1S,1H24,1H25,1H26,1H27,1H28,1HCK,1HCL,1JST,1JSU,1JSV,1JVP,1KE5,1KE6,1KE7,1KE8,1KE9,1OGU,1OI9,1OIQ,1OIR,1OIU,1OIY,1OKV,1OKW,1OL1,1OL2,1P2A,1P5E,1PF8,1PKD,1PW2,1PXI,1PXJ,1PXK,1PXL,1PXM,1PXN,1PXO,1PXP,1PYE,1QMZ,1R78,1URC,1URW,1V1K,1VYW,1VYZ,1W0X,1W8C,1W98,1WCC,1Y8Y,1Y91,1YKR,2A0C,2A4L,2B52,2B53,2B54,2B55,2BHE,2BHH,2BKZ,2BPM,2BTR,2BTS,2C4G,2C5N,2C5O,2C5V,2C5X,2C5Y,2C68,2C69,2C6I,2C6K,2C6L,2C6M,2C6O,2C6T,2CCH,2CCI,2CJM,2CLX,2DUV,2EXM,2FVD,2G9X,2I40,2J9M,2JGZ,2R3F,2R3G,2R3H,2R3I,2R3J,2R3K,2R3L,2R3M,2R3N,2R3O,2R3P,2R3Q,2R3R,2R64,2UUE,2UZB,2UZD,2UZE,2UZL,2UZN,2UZO,2V0D,2V22,2VTA,2VTH,2VTI,2VTJ,2VTL,2VTM,2VTN,2VTO,2VTP,2VTQ,2VTR,2VTS,2VTT,2VU3,2VV9,2W05,2W06,2W17,2W1H,2WEV,2WFY,2WHB,2WIH,2WIP,2WMA,2WMB,2WPA,2WXV,2X1N,2XMY,2XNB,3BHT,3BHU,3BHV,3DDP,3DDQ,3DOG,3EID,3EJ1,3EOC,3EZR,3EZV,3F5X,3FZ1,3IG7,3IGG,3LE6,3LFN,3LFQ,3LFS,3MY5,3NS9,3PJ8,3PXF,3PXQ,3PXR,3PXY,3PXZ,3PY0,3PY1,3QHR,3QHW,3QL8,3QQF,3QQG,3QQH,3QQJ,3QQK,3QQL,3QRT,3QRU,3QTQ,3QTR,3QTS,3QTU,3QTW,3QTX,3QTZ,3QU0,3QWJ,3QWK,3QX2,3QX4,3QXO,3QXP,3QZF,3QZG,3QZH,3QZI,3R1Q,3R1S,3R1Y,3R28,3R6X,3R71,3R73,3R7E,3R7I,3R7U,3R7V,3R7Y,3R83,3R8L,3R8M,3R8P,3R8U,3R8V,3R8Z,3R9D,3R9H,3R9N,3R9O,3RAH,3RAI,3RAK,3RAL,3RJC,3RK5,3RK7,3RK9,3RKB,3RM6,3RM7,3RMF,3RNI,3ROY,3RPO,3RPR,3RPV,3RPY,3RZB,3S00,3S0O,3S1H,3S2P,3SQQ,3SW4,3SW7,3TI1,3TIY,3TIZ,3TNW,3ULI,3UNJ,3UNK,3WBL,4ACM,4BCK,4BCM,4BCN,4BCO,4BCP,4BCQ,4BGH,4BZD,4CFM,4CFN,4CFU,4CFV,4CFW,4CFX,4D1X,4D1Z,4EK3,4EK4,4EK5,4EK6,4EK8,4EOQ,4EOR,4EOS,4ERW,4EZ3,4EZ7,4FKG,4FKI,4FKJ,4FKL,4FKO,4FKP,4FKQ,4FKR,4FKS,4FKT,4FKU,4FKV,4FKW,4FX3,4GCJ,4I3Z,4II5,4KD1,4LYN,4NJ3,4RJ3,5A14,5AND,5ANE,5ANG,5ANI,5ANJ,5ANK,5ANO,5CYI,5D1J,5FP5,5FP6,5IEV,5IEX,5IEY,5IF1,5JQ5,5JQ8,5K4J,5L2W,5LMK,5MHQ,5NEV,5OO0,5OSJ,5UQ1,5UQ2,5UQ3,6ATH,6GUB,6GUC,6GUE,6GUF,6GUH,6GUK,6GVA,6INL,6JGM,6OQI,6P3W,6Q3B,6Q3C,6Q3F,6Q48,6Q49,6Q4A,6Q4B,6Q4C,6Q4D,6Q4E,6Q4F,6Q4H,6Q4J,6Q4K,6RIJ,6SG4,7ACK,7B5L,7B5R,7B7S,7E34,7KJS,7M2F,7NVQ

> <UniProt (SwissProt) Recommended Name of Target Chain>
Cyclin-dependent kinase 2

> <UniProt (SwissProt) Entry Name of Target Chain>
CDK2_HUMAN

> <UniProt (SwissProt) Primary ID of Target Chain>
P24941

> <UniProt (SwissProt) Secondary ID(s) of Target Chain>
A8K7C6,O75100

> <UniProt (SwissProt) Alternative ID(s) of Target Chain>


> <UniProt (TrEMBL) Submitted Name of Target Chain>


> <UniProt (TrEMBL) Entry Name of Target Chain>


> <UniProt (TrEMBL) Primary ID of Target Chain>
A0A024RB77

> <UniProt (TrEMBL) Secondary ID(s) of Target Chain>


> <UniProt (TrEMBL) Alternative ID(s) of Target Chain>


$$$$
NU6027

Vconf v2.0 Academic SN VC001-00000579
 35 36  0  0  0  0  0  0  0  0999 V2000
    0.1430    2.3200    0.4400 C   0  0  0  0  0  0  0  0  0  0  0
   -0.8630    0.1840    0.3240 C   0  0  0  0  0  0  0  0  0  0  0
    1.4750    0.3350    0.6030 C   0  0  0  0  0  0  0  0  0  0  0
    1.4170    1.7450    0.5940 C   0  0  0  0  0  0  0  0  0  0  0
   -0.9530    1.5320    0.3100 N   0  0  0  0  0  0  0  0  0  0  0
    0.3460   -0.4000    0.4690 N   0  0  0  0  0  0  0  0  0  0  0
   -1.9620   -0.5640    0.1960 N   0  0  0  0  0  0  0  0  0  0  0
    2.4600    2.5460    0.7180 N   0  0  0  0  0  0  0  0  0  0  0
    3.5680    2.2040    0.8520 O   0  0  0  0  0  0  0  0  0  0  0
    0.0250    3.6770    0.4250 O   0  0  0  0  0  0  0  0  0  0  0
   -1.2570    4.2850    0.2520 C   0  0  0  0  0  0  0  0  0  0  0
   -1.1020    5.8140    0.2770 C   0  0  0  0  0  0  0  0  0  0  0
   -0.1950    6.2810   -0.8770 C   0  0  0  0  0  0  0  0  0  0  0
   -0.0530    7.8110   -0.8650 C   0  0  0  0  0  0  0  0  0  0  0
   -1.4330    8.4780   -0.9700 C   0  0  0  0  0  0  0  0  0  0  0
   -2.3390    8.0150    0.1810 C   0  0  0  0  0  0  0  0  0  0  0
   -2.4830    6.4860    0.1670 C   0  0  0  0  0  0  0  0  0  0  0
    2.6290   -0.3330    0.7420 N   0  0  0  0  0  0  0  0  0  0  0
   -1.8910   -1.5310    0.2080 H   0  0  0  0  0  0  0  0  0  0  0
   -2.8260   -0.1390    0.0930 H   0  0  0  0  0  0  0  0  0  0  0
   -1.6900    3.9790   -0.7020 H   0  0  0  0  0  0  0  0  0  0  0
   -1.9210    3.9800    1.0630 H   0  0  0  0  0  0  0  0  0  0  0
   -0.6450    6.1000    1.2260 H   0  0  0  0  0  0  0  0  0  0  0
   -0.6230    5.9660   -1.8290 H   0  0  0  0  0  0  0  0  0  0  0
    0.7930    5.8330   -0.7660 H   0  0  0  0  0  0  0  0  0  0  0
    0.4320    8.1230    0.0610 H   0  0  0  0  0  0  0  0  0  0  0
    0.5620    8.1210   -1.7100 H   0  0  0  0  0  0  0  0  0  0  0
   -1.8930    8.2140   -1.9230 H   0  0  0  0  0  0  0  0  0  0  0
   -1.3140    9.5610   -0.9220 H   0  0  0  0  0  0  0  0  0  0  0
   -1.9080    8.3310    1.1320 H   0  0  0  0  0  0  0  0  0  0  0
   -3.3240    8.4710    0.0690 H   0  0  0  0  0  0  0  0  0  0  0
   -2.9680    6.1780   -0.7600 H   0  0  0  0  0  0  0  0  0  0  0
   -3.1040    6.1800    1.0100 H   0  0  0  0  0  0  0  0  0  0  0
    2.6290   -1.3020    0.7410 H   0  0  0  0  0  0  0  0  0  0  0
    3.4610    0.1540    0.8420 H   0  0  0  0  0  0  0  0  0  0  0
  1  4  1  0  0  0  0
  1  5  2  0  0  0  0
  1 10  1  0  0  0  0
  2  5  1  0  0  0  0
  2  6  2  0  0  0  0
  2  7  1  0  0  0  0
  3  4  2  0  0  0  0
  3  6  1  0  0  0  0
  3 18  1  0  0  0  0
  4  8  1  0  0  0  0
  7 19  1  0  0  0  0
  7 20  1  0  0  0  0
  8  9  2  0  0  0  0
 10 11  1  0  0  0  0
 11 12  1  0  0  0  0
 11 21  1  0  0  0  0
 11 22  1  0  0  0  0
 12 13  1  0  0  0  0
 12 17  1  0  0  0  0
 12 23  1  0  0  0  0
 13 14  1  0  0  0  0
 13 24  1  0  0  0  0
 13 25  1  0  0  0  0
 14 15  1  0  0  0  0
 14 26  1  0  0  0  0
 14 27  1  0  0  0  0
 15 16  1  0  0  0  0
 15 28  1  0  0  0  0
 15 29  1  0  0  0  0
 16 17  1  0  0  0  0
 16 30  1  0  0  0  0
 16 31  1  0  0  0  0
 17 32  1  0  0  0  0
 17 33  1  0  0  0  0
 18 34  1  0  0  0  0
 18 35  1  0  0  0  0
M  END
> <From>
www.bindingDB.org

> <BindingDB Reactant_set_id>
50699979

> <Ligand InChI>
InChI=1S/C11H17N5O2/c12-9-8(16-17)10(15-11(13)14-9)18-6-7-4-2-1-3-5-7/h7H,1-6H2,(H4,12,13,14,15)

> <Ligand InChI Key>
DGWXOLHKVGDQLN-UHFFFAOYSA-N

> <BindingDB MonomerID>
5566

> <BindingDB Ligand Name>
2,6-Diamino-4-cyclohexylmethoxy-5-nitrosopyrimidine::6-(cyclohexylmethoxy)-5-nitrosopyrimidine-2,4-diamine::NU6027::pyrimidine deriv.

> <Target Name Assigned by Curator or DataSource>
Cyclin-dependent kinase 2

> <Target Source Organism According to Curator or DataSource>
Homo sapiens

> <Ki (nM)>
 1300

> <IC50 (nM)>


> <Kd (nM)>


> <EC50 (nM)>


> <kon (M-1-s-1)>


> <koff (s-1)>


> <pH>


> <Temp C>


> <Curation/DataSource>
ChEMBL

> <Article DOI>
10.1016/j.bmcl.2011.09.069

> <PMID>
21986585

> <PubChem AID>


> <Patent Number>


> <Authors>
Rios-Luci, C; Dominguez-Kelly, R; Leon, LG; Diaz-Rodriguez, E; Freire, R; Pandiella, A; Cikotiene, I; Padron, JM

> <Institution>
Instituto Universitario de Bio-Org&#163;nica Antonio Gonz&#163;lez (IUBO-AG)

> <Link to Ligand in BindingDB>
http://www.bindingdb.org/bind/chemsearch/marvin/MolStructure.jsp?monomerid=5566

> <Link to Ligand-Target Pair in BindingDB>
http://www.bindingdb.org/jsp/dbsearch/PrimarySearch_ki.jsp?energyterm=kJ/mole&tag=pol&polymerid=796&target=Cyclin-dependent+kinase+2&column=ki&startPg=0&Increment=50&submit=Search

> <Link to Ligand-Target Pair in BindingDB>
http://www.bindingdb.org/jsp/dbsearch/PrimarySearch_ki.jsp?energyterm=kJ/mole&tag=r21&monomerid=5566&enzyme=Cyclin-dependent+kinase+2&column=ki&startPg=0&Increment=50&submit=Search

> <Ligand HET ID in PDB>
NW1

> <PDB ID(s) for Ligand-Target Complex>
1E1X

> <PubChem CID>
398148

> <PubChem SID>
8035183

> <ChEBI ID of Ligand>


> <ChEMBL ID of Ligand>


> <DrugBank ID of Ligand>
DB08312

> <IUPHAR_GRAC ID of Ligand>


> <KEGG ID of Ligand>


> <ZINC ID of Ligand>
ZINC03814479

> <Number of Protein Chains in Target (bigger than 1 implies a multichain complex)>
1

> <BindingDB Target Chain Sequence>
MENFQKVEKIGEGTYGVVYKARNKLTGEVVALKKIRLDTETEGVPSTAIREISLLKELNHPNIVKLLDVIHTENKLYLVFEFLHQDLKKFMDASALTGIPLPLIKSYLFQLLQGLAFCHSHRVLHRDLKPQNLLINTEGAIKLADFGLARAFGVPVRTYTHEVVTLWYRAPEILLGCKYYSTAVDIWSLGCIFAEMVTRRALFPGDSEIDQLFRIFRTLGTPDEVVWPGVTSMPDYKPSFPKWARQDFSKVVPPLDEDGRSLLSQMLHYDPNKRISAKAALAHPFFQDVTKPVPHLRL

> <PDB ID(s) of Target Chain>
1CKP,1DI8,1DM2,1E1V,1E1X,1E9H,1F5Q,1FIN,1FQ1,1FVT,1FVV,1G5S,1GIH,1GY3,1GZ8,1H00,1H01,1H07,1H08,1H0V,1H0W,1H1P,1H1Q,1H1R,1H1S,1H24,1H25,1H26,1H27,1H28,1HCK,1HCL,1JST,1JSU,1JSV,1JVP,1KE5,1KE6,1KE7,1KE8,1KE9,1OGU,1OI9,1OIQ,1OIR,1OIU,1OIY,1OKV,1OKW,1OL1,1OL2,1P2A,1P5E,1PF8,1PKD,1PW2,1PXI,1PXJ,1PXK,1PXL,1PXM,1PXN,1PXO,1PXP,1PYE,1QMZ,1R78,1URC,1URW,1V1K,1VYW,1VYZ,1W0X,1W8C,1W98,1WCC,1Y8Y,1Y91,1YKR,2A0C,2A4L,2B52,2B53,2B54,2B55,2BHE,2BHH,2BKZ,2BPM,2BTR,2BTS,2C4G,2C5N,2C5O,2C5V,2C5X,2C5Y,2C68,2C69,2C6I,2C6K,2C6L,2C6M,2C6O,2C6T,2CCH,2CCI,2CJM,2CLX,2DUV,2EXM,2FVD,2G9X,2I40,2J9M,2JGZ,2R3F,2R3G,2R3H,2R3I,2R3J,2R3K,2R3L,2R3M,2R3N,2R3O,2R3P,2R3Q,2R3R,2R64,2UUE,2UZB,2UZD,2UZE,2UZL,2UZN,2UZO,2V0D,2V22,2VTA,2VTH,2VTI,2VTJ,2VTL,2VTM,2VTN,2VTO,2VTP,2VTQ,2VTR,2VTS,2VTT,2VU3,2VV9,2W05,2W06,2W17,2W1H,2WEV,2WFY,2WHB,2WIH,2WIP,2WMA,2WMB,2WPA,2WXV,2X1N,2XMY,2XNB,3BHT,3BHU,3BHV,3DDP,3DDQ,3DOG,3EID,3EJ1,3EOC,3EZR,3EZV,3F5X,3FZ1,3IG7,3IGG,3LE6,3LFN,3LFQ,3LFS,3MY5,3NS9,3PJ8,3PXF,3PXQ,3PXR,3PXY,3PXZ,3PY0,3PY1,3QHR,3QHW,3QL8,3QQF,3QQG,3QQH,3QQJ,3QQK,3QQL,3QRT,3QRU,3QTQ,3QTR,3QTS,3QTU,3QTW,3QTX,3QTZ,3QU0,3QWJ,3QWK,3QX2,3QX4,3QXO,3QXP,3QZF,3QZG,3QZH,3QZI,3R1Q,3R1S,3R1Y,3R28,3R6X,3R71,3R73,3R7E,3R7I,3R7U,3R7V,3R7Y,3R83,3R8L,3R8M,3R8P,3R8U,3R8V,3R8Z,3R9D,3R9H,3R9N,3R9O,3RAH,3RAI,3RAK,3RAL,3RJC,3RK5,3RK7,3RK9,3RKB,3RM6,3RM7,3RMF,3RNI,3ROY,3RPO,3RPR,3RPV,3RPY,3RZB,3S00,3S0O,3S1H,3S2P,3SQQ,3SW4,3SW7,3TI1,3TIY,3TIZ,3TNW,3ULI,3UNJ,3UNK,3WBL,4ACM,4BCK,4BCM,4BCN,4BCO,4BCP,4BCQ,4BGH,4BZD,4CFM,4CFN,4CFU,4CFV,4CFW,4CFX,4D1X,4D1Z,4EK3,4EK4,4EK5,4EK6,4EK8,4EOQ,4EOR,4EOS,4ERW,4EZ3,4EZ7,4FKG,4FKI,4FKJ,4FKL,4FKO,4FKP,4FKQ,4FKR,4FKS,4FKT,4FKU,4FKV,4FKW,4FX3,4GCJ,4I3Z,4II5,4KD1,4LYN,4NJ3,4RJ3,5A14,5AND,5ANE,5ANG,5ANI,5ANJ,5ANK,5ANO,5CYI,5D1J,5FP5,5FP6,5IEV,5IEX,5IEY,5IF1,5JQ5,5JQ8,5K4J,5L2W,5LMK,5MHQ,5NEV,5OO0,5OSJ,5UQ1,5UQ2,5UQ3,6ATH,6GUB,6GUC,6GUE,6GUF,6GUH,6GUK,6GVA,6INL,6JGM,6OQI,6P3W,6Q3B,6Q3C,6Q3F,6Q48,6Q49,6Q4A,6Q4B,6Q4C,6Q4D,6Q4E,6Q4F,6Q4H,6Q4J,6Q4K,6RIJ,6SG4,7ACK,7B5L,7B5R,7B7S,7E34,7KJS,7M2F,7NVQ

> <UniProt (SwissProt) Recommended Name of Target Chain>
Cyclin-dependent kinase 2

> <UniProt (SwissProt) Entry Name of Target Chain>
CDK2_HUMAN

> <UniProt (SwissProt) Primary ID of Target Chain>
P24941

> <UniProt (SwissProt) Secondary ID(s) of Target Chain>
A8K7C6,O75100

> <UniProt (SwissProt) Alternative ID(s) of Target Chain>


> <UniProt (TrEMBL) Submitted Name of Target Chain>


> <UniProt (TrEMBL) Entry Name of Target Chain>


> <UniProt (TrEMBL) Primary ID of Target Chain>
A0A024RB77

> <UniProt (TrEMBL) Secondary ID(s) of Target Chain>


> <UniProt (TrEMBL) Alternative ID(s) of Target Chain>


$$$$
BindingDB_50275356_mol_1

Vconf v2.0 Academic SN VC001-00000579
 36 38  0  0  0  0  0  0  0  0999 V2000
   -2.4630  -12.8710   -0.2690 C   0  0  0  0  0  0  0  0  0  0  0
   -2.5720  -14.0210    0.5320 C   0  0  0  0  0  0  0  0  0  0  0
   -1.4060  -14.5540    1.1240 C   0  0  0  0  0  0  0  0  0  0  0
   -0.1450  -13.9400    0.9570 C   0  0  0  0  0  0  0  0  0  0  0
   -0.0710  -12.7760    0.1590 C   0  0  0  0  0  0  0  0  0  0  0
   -1.2190  -12.2460   -0.4520 C   0  0  0  0  0  0  0  0  0  0  0
   -3.7980  -14.5900    0.6640 N   0  0  0  0  0  0  0  0  0  0  0
   -4.3250  -15.1080    1.8000 C   0  0  0  0  0  0  0  0  0  0  0
   -5.5720  -15.6320    1.7480 N   0  0  0  0  0  0  0  0  0  0  0
   -6.1710  -16.1640    2.8400 C   0  0  0  0  0  0  0  0  0  0  0
   -5.5000  -16.1800    4.0700 C   0  0  0  0  0  0  0  0  0  0  0
   -4.2070  -15.6300    4.1200 C   0  0  0  0  0  0  0  0  0  0  0
   -3.6690  -15.1140    2.9880 N   0  0  0  0  0  0  0  0  0  0  0
   -3.4470  -15.5910    5.3000 C   0  0  0  0  0  0  0  0  0  0  0
   -3.8750  -16.0690    6.4830 N   0  0  0  0  0  0  0  0  0  0  0
   -2.9690  -15.9130    7.4560 C   0  0  0  0  0  0  0  0  0  0  0
   -1.8090  -15.3000    7.0030 C   0  0  0  0  0  0  0  0  0  0  0
   -1.8540  -14.9050    5.3210 S   0  0  0  0  0  0  0  0  0  0  0
    1.0490  -14.5310    1.6180 C   0  0  0  0  0  0  0  0  0  0  0
   -3.1850  -16.3520    8.8390 C   0  0  0  0  0  0  0  0  0  0  0
    2.2180  -13.8450    1.3810 F   0  0  0  0  0  0  0  0  0  0  0
    0.8690  -14.5580    2.9810 F   0  0  0  0  0  0  0  0  0  0  0
    1.2440  -15.8190    1.1790 F   0  0  0  0  0  0  0  0  0  0  0
   -3.1070  -15.2440    9.7280 O   0  0  0  0  0  0  0  0  0  0  0
   -1.1340  -11.1340   -1.2150 O   0  0  0  0  0  0  0  0  0  0  0
   -3.2930  -12.4800   -0.7170 H   0  0  0  0  0  0  0  0  0  0  0
   -1.4720  -15.4040    1.6860 H   0  0  0  0  0  0  0  0  0  0  0
    0.8250  -12.3080    0.0180 H   0  0  0  0  0  0  0  0  0  0  0
   -4.3730  -14.5850   -0.1170 H   0  0  0  0  0  0  0  0  0  0  0
   -7.1110  -16.5520    2.7660 H   0  0  0  0  0  0  0  0  0  0  0
   -5.9450  -16.5800    4.8980 H   0  0  0  0  0  0  0  0  0  0  0
   -1.0090  -15.1000    7.6040 H   0  0  0  0  0  0  0  0  0  0  0
   -4.1710  -16.8100    8.9280 H   0  0  0  0  0  0  0  0  0  0  0
   -2.4270  -17.0870    9.1110 H   0  0  0  0  0  0  0  0  0  0  0
   -3.2500  -15.4720   10.6700 H   0  0  0  0  0  0  0  0  0  0  0
   -0.2320  -10.7580   -1.2920 H   0  0  0  0  0  0  0  0  0  0  0
  1  2  1  0  0  0  0
  1  6  2  0  0  0  0
  1 26  1  0  0  0  0
  2  3  2  0  0  0  0
  2  7  1  0  0  0  0
  3  4  1  0  0  0  0
  3 27  1  0  0  0  0
  4  5  2  0  0  0  0
  4 19  1  0  0  0  0
  5  6  1  0  0  0  0
  5 28  1  0  0  0  0
  6 25  1  0  0  0  0
  7  8  1  0  0  0  0
  7 29  1  0  0  0  0
  8  9  1  0  0  0  0
  8 13  2  0  0  0  0
  9 10  2  0  0  0  0
 10 11  1  0  0  0  0
 10 30  1  0  0  0  0
 11 12  2  0  0  0  0
 11 31  1  0  0  0  0
 12 13  1  0  0  0  0
 12 14  1  0  0  0  0
 14 15  2  0  0  0  0
 14 18  1  0  0  0  0
 15 16  1  0  0  0  0
 16 17  2  0  0  0  0
 16 20  1  0  0  0  0
 17 18  1  0  0  0  0
 17 32  1  0  0  0  0
 19 21  1  0  0  0  0
 19 22  1  0  0  0  0
 19 23  1  0  0  0  0
 20 24  1  0  0  0  0
 20 33  1  0  0  0  0
 20 34  1  0  0  0  0
 24 35  1  0  0  0  0
 25 36  1  0  0  0  0
M  END
> <From>
www.bindingDB.org

> <BindingDB Reactant_set_id>
50436570

> <Ligand InChI>
InChI=1S/C15H11F3N4O2S/c16-15(17,18)8-3-9(5-11(24)4-8)21-14-19-2-1-12(22-14)13-20-10(6-23)7-25-13/h1-5,7,23-24H,6H2,(H,19,21,22)

> <Ligand InChI Key>
CXXHIMHTNIDPAR-UHFFFAOYSA-N

> <BindingDB MonomerID>
50275356

> <BindingDB Ligand Name>
3-(4-(4-(hydroxymethyl)thiazol-2-yl)pyrimidin-2-ylamino)-5-(trifluoromethyl)phenol::CHEMBL485730

> <Target Name Assigned by Curator or DataSource>
Cyclin-dependent kinase 2

> <Target Source Organism According to Curator or DataSource>
Homo sapiens

> <Ki (nM)>
 1500

> <IC50 (nM)>


> <Kd (nM)>


> <EC50 (nM)>


> <kon (M-1-s-1)>


> <koff (s-1)>


> <pH>


> <Temp C>


> <Curation/DataSource>
ChEMBL

> <Article DOI>
10.1016/j.bmcl.2008.09.106

> <PMID>
18938080

> <PubChem AID>


> <Patent Number>


> <Authors>
Farmer, LJ; Bemis, G; Britt, SD; Cochran, J; Connors, M; Harrington, EM; Hoock, T; Markland, W; Nanthakumar, S; Taslimi, P; Ter Haar, E; Wang, J; Zhaveri, D; Salituro, FG

> <Institution>
Vertex Pharmaceuticals Inc

> <Link to Ligand in BindingDB>
http://www.bindingdb.org/bind/chemsearch/marvin/MolStructure.jsp?monomerid=50275356

> <Link to Ligand-Target Pair in BindingDB>
http://www.bindingdb.org/jsp/dbsearch/PrimarySearch_ki.jsp?energyterm=kJ/mole&tag=pol&polymerid=796&target=Cyclin-dependent+kinase+2&column=ki&startPg=0&Increment=50&submit=Search

> <Link to Ligand-Target Pair in BindingDB>
http://www.bindingdb.org/jsp/dbsearch/PrimarySearch_ki.jsp?energyterm=kJ/mole&tag=r21&monomerid=50275356&enzyme=Cyclin-dependent+kinase+2&column=ki&startPg=0&Increment=50&submit=Search

> <Ligand HET ID in PDB>


> <PDB ID(s) for Ligand-Target Complex>


> <PubChem CID>
44589515

> <PubChem SID>
104118857

> <ChEBI ID of Ligand>


> <ChEMBL ID of Ligand>
CHEMBL485730

> <DrugBank ID of Ligand>


> <IUPHAR_GRAC ID of Ligand>


> <KEGG ID of Ligand>


> <ZINC ID of Ligand>
ZINC40938554

> <Number of Protein Chains in Target (bigger than 1 implies a multichain complex)>
1

> <BindingDB Target Chain Sequence>
MENFQKVEKIGEGTYGVVYKARNKLTGEVVALKKIRLDTETEGVPSTAIREISLLKELNHPNIVKLLDVIHTENKLYLVFEFLHQDLKKFMDASALTGIPLPLIKSYLFQLLQGLAFCHSHRVLHRDLKPQNLLINTEGAIKLADFGLARAFGVPVRTYTHEVVTLWYRAPEILLGCKYYSTAVDIWSLGCIFAEMVTRRALFPGDSEIDQLFRIFRTLGTPDEVVWPGVTSMPDYKPSFPKWARQDFSKVVPPLDEDGRSLLSQMLHYDPNKRISAKAALAHPFFQDVTKPVPHLRL

> <PDB ID(s) of Target Chain>
1CKP,1DI8,1DM2,1E1V,1E1X,1E9H,1F5Q,1FIN,1FQ1,1FVT,1FVV,1G5S,1GIH,1GY3,1GZ8,1H00,1H01,1H07,1H08,1H0V,1H0W,1H1P,1H1Q,1H1R,1H1S,1H24,1H25,1H26,1H27,1H28,1HCK,1HCL,1JST,1JSU,1JSV,1JVP,1KE5,1KE6,1KE7,1KE8,1KE9,1OGU,1OI9,1OIQ,1OIR,1OIU,1OIY,1OKV,1OKW,1OL1,1OL2,1P2A,1P5E,1PF8,1PKD,1PW2,1PXI,1PXJ,1PXK,1PXL,1PXM,1PXN,1PXO,1PXP,1PYE,1QMZ,1R78,1URC,1URW,1V1K,1VYW,1VYZ,1W0X,1W8C,1W98,1WCC,1Y8Y,1Y91,1YKR,2A0C,2A4L,2B52,2B53,2B54,2B55,2BHE,2BHH,2BKZ,2BPM,2BTR,2BTS,2C4G,2C5N,2C5O,2C5V,2C5X,2C5Y,2C68,2C69,2C6I,2C6K,2C6L,2C6M,2C6O,2C6T,2CCH,2CCI,2CJM,2CLX,2DUV,2EXM,2FVD,2G9X,2I40,2J9M,2JGZ,2R3F,2R3G,2R3H,2R3I,2R3J,2R3K,2R3L,2R3M,2R3N,2R3O,2R3P,2R3Q,2R3R,2R64,2UUE,2UZB,2UZD,2UZE,2UZL,2UZN,2UZO,2V0D,2V22,2VTA,2VTH,2VTI,2VTJ,2VTL,2VTM,2VTN,2VTO,2VTP,2VTQ,2VTR,2VTS,2VTT,2VU3,2VV9,2W05,2W06,2W17,2W1H,2WEV,2WFY,2WHB,2WIH,2WIP,2WMA,2WMB,2WPA,2WXV,2X1N,2XMY,2XNB,3BHT,3BHU,3BHV,3DDP,3DDQ,3DOG,3EID,3EJ1,3EOC,3EZR,3EZV,3F5X,3FZ1,3IG7,3IGG,3LE6,3LFN,3LFQ,3LFS,3MY5,3NS9,3PJ8,3PXF,3PXQ,3PXR,3PXY,3PXZ,3PY0,3PY1,3QHR,3QHW,3QL8,3QQF,3QQG,3QQH,3QQJ,3QQK,3QQL,3QRT,3QRU,3QTQ,3QTR,3QTS,3QTU,3QTW,3QTX,3QTZ,3QU0,3QWJ,3QWK,3QX2,3QX4,3QXO,3QXP,3QZF,3QZG,3QZH,3QZI,3R1Q,3R1S,3R1Y,3R28,3R6X,3R71,3R73,3R7E,3R7I,3R7U,3R7V,3R7Y,3R83,3R8L,3R8M,3R8P,3R8U,3R8V,3R8Z,3R9D,3R9H,3R9N,3R9O,3RAH,3RAI,3RAK,3RAL,3RJC,3RK5,3RK7,3RK9,3RKB,3RM6,3RM7,3RMF,3RNI,3ROY,3RPO,3RPR,3RPV,3RPY,3RZB,3S00,3S0O,3S1H,3S2P,3SQQ,3SW4,3SW7,3TI1,3TIY,3TIZ,3TNW,3ULI,3UNJ,3UNK,3WBL,4ACM,4BCK,4BCM,4BCN,4BCO,4BCP,4BCQ,4BGH,4BZD,4CFM,4CFN,4CFU,4CFV,4CFW,4CFX,4D1X,4D1Z,4EK3,4EK4,4EK5,4EK6,4EK8,4EOQ,4EOR,4EOS,4ERW,4EZ3,4EZ7,4FKG,4FKI,4FKJ,4FKL,4FKO,4FKP,4FKQ,4FKR,4FKS,4FKT,4FKU,4FKV,4FKW,4FX3,4GCJ,4I3Z,4II5,4KD1,4LYN,4NJ3,4RJ3,5A14,5AND,5ANE,5ANG,5ANI,5ANJ,5ANK,5ANO,5CYI,5D1J,5FP5,5FP6,5IEV,5IEX,5IEY,5IF1,5JQ5,5JQ8,5K4J,5L2W,5LMK,5MHQ,5NEV,5OO0,5OSJ,5UQ1,5UQ2,5UQ3,6ATH,6GUB,6GUC,6GUE,6GUF,6GUH,6GUK,6GVA,6INL,6JGM,6OQI,6P3W,6Q3B,6Q3C,6Q3F,6Q48,6Q49,6Q4A,6Q4B,6Q4C,6Q4D,6Q4E,6Q4F,6Q4H,6Q4J,6Q4K,6RIJ,6SG4,7ACK,7B5L,7B5R,7B7S,7E34,7KJS,7M2F,7NVQ

> <UniProt (SwissProt) Recommended Name of Target Chain>
Cyclin-dependent kinase 2

> <UniProt (SwissProt) Entry Name of Target Chain>
CDK2_HUMAN

> <UniProt (SwissProt) Primary ID of Target Chain>
P24941

> <UniProt (SwissProt) Secondary ID(s) of Target Chain>
A8K7C6,O75100

> <UniProt (SwissProt) Alternative ID(s) of Target Chain>


> <UniProt (TrEMBL) Submitted Name of Target Chain>


> <UniProt (TrEMBL) Entry Name of Target Chain>


> <UniProt (TrEMBL) Primary ID of Target Chain>
A0A024RB77

> <UniProt (TrEMBL) Secondary ID(s) of Target Chain>


> <UniProt (TrEMBL) Alternative ID(s) of Target Chain>


$$$$
BindingDB_50275358_mol_1

Vconf v2.0 Academic SN VC001-00000579
 38 40  0  0  0  0  0  0  0  0999 V2000
   11.9770  -12.3660   -0.1760 C   0  0  0  0  0  0  0  0  0  0  0
   11.8720  -13.4760    0.6800 C   0  0  0  0  0  0  0  0  0  0  0
   13.0320  -13.9450    1.3320 C   0  0  0  0  0  0  0  0  0  0  0
   14.2800  -13.3050    1.1700 C   0  0  0  0  0  0  0  0  0  0  0
   14.3490  -12.1830    0.3140 C   0  0  0  0  0  0  0  0  0  0  0
   13.2080  -11.7110   -0.3630 C   0  0  0  0  0  0  0  0  0  0  0
   10.6520  -14.0640    0.7950 N   0  0  0  0  0  0  0  0  0  0  0
   10.1150  -14.6170    1.9090 C   0  0  0  0  0  0  0  0  0  0  0
    8.8680  -15.1370    1.8200 N   0  0  0  0  0  0  0  0  0  0  0
    8.2510  -15.7040    2.8840 C   0  0  0  0  0  0  0  0  0  0  0
    8.9030  -15.7670    4.1220 C   0  0  0  0  0  0  0  0  0  0  0
   10.1980  -15.2230    4.2100 C   0  0  0  0  0  0  0  0  0  0  0
   10.7530  -14.6670    3.1050 N   0  0  0  0  0  0  0  0  0  0  0
   10.9420  -15.2380    5.3990 C   0  0  0  0  0  0  0  0  0  0  0
   10.4950  -15.7610    6.5550 N   0  0  0  0  0  0  0  0  0  0  0
   11.3900  -15.6570    7.5460 C   0  0  0  0  0  0  0  0  0  0  0
   12.5630  -15.0410    7.1320 C   0  0  0  0  0  0  0  0  0  0  0
   12.5430  -14.5720    5.4680 S   0  0  0  0  0  0  0  0  0  0  0
   15.4680  -13.8280    1.8950 C   0  0  0  0  0  0  0  0  0  0  0
   11.1530  -16.1520    8.9050 C   0  0  0  0  0  0  0  0  0  0  0
   16.6270  -13.1250    1.6560 F   0  0  0  0  0  0  0  0  0  0  0
   15.2490  -13.7890    3.2520 F   0  0  0  0  0  0  0  0  0  0  0
   15.7080  -15.1310    1.5310 F   0  0  0  0  0  0  0  0  0  0  0
   11.2360  -15.0840    9.8420 O   0  0  0  0  0  0  0  0  0  0  0
   13.2820  -10.5480   -1.2610 C   0  0  0  0  0  0  0  0  0  0  0
   11.1490  -12.0260   -0.6670 H   0  0  0  0  0  0  0  0  0  0  0
   12.9750  -14.7670    1.9340 H   0  0  0  0  0  0  0  0  0  0  0
   15.2400  -11.7040    0.1760 H   0  0  0  0  0  0  0  0  0  0  0
   10.0830  -14.0450    0.0100 H   0  0  0  0  0  0  0  0  0  0  0
    7.3110  -16.0870    2.7820 H   0  0  0  0  0  0  0  0  0  0  0
    8.4470  -16.1960    4.9280 H   0  0  0  0  0  0  0  0  0  0  0
   13.3580  -14.8750    7.7500 H   0  0  0  0  0  0  0  0  0  0  0
   10.1600  -16.5990    8.9640 H   0  0  0  0  0  0  0  0  0  0  0
   11.8980  -16.9090    9.1530 H   0  0  0  0  0  0  0  0  0  0  0
   11.0780  -15.3490   10.7720 H   0  0  0  0  0  0  0  0  0  0  0
   14.2960  -10.1470   -1.3050 H   0  0  0  0  0  0  0  0  0  0  0
   12.9790  -10.8440   -2.2670 H   0  0  0  0  0  0  0  0  0  0  0
   12.6120   -9.7660   -0.9020 H   0  0  0  0  0  0  0  0  0  0  0
  1  2  1  0  0  0  0
  1  6  2  0  0  0  0
  1 26  1  0  0  0  0
  2  3  2  0  0  0  0
  2  7  1  0  0  0  0
  3  4  1  0  0  0  0
  3 27  1  0  0  0  0
  4  5  2  0  0  0  0
  4 19  1  0  0  0  0
  5  6  1  0  0  0  0
  5 28  1  0  0  0  0
  6 25  1  0  0  0  0
  7  8  1  0  0  0  0
  7 29  1  0  0  0  0
  8  9  1  0  0  0  0
  8 13  2  0  0  0  0
  9 10  2  0  0  0  0
 10 11  1  0  0  0  0
 10 30  1  0  0  0  0
 11 12  2  0  0  0  0
 11 31  1  0  0  0  0
 12 13  1  0  0  0  0
 12 14  1  0  0  0  0
 14 15  2  0  0  0  0
 14 18  1  0  0  0  0
 15 16  1  0  0  0  0
 16 17  2  0  0  0  0
 16 20  1  0  0  0  0
 17 18  1  0  0  0  0
 17 32  1  0  0  0  0
 19 21  1  0  0  0  0
 19 22  1  0  0  0  0
 19 23  1  0  0  0  0
 20 24  1  0  0  0  0
 20 33  1  0  0  0  0
 20 34  1  0  0  0  0
 24 35  1  0  0  0  0
 25 36  1  0  0  0  0
 25 37  1  0  0  0  0
 25 38  1  0  0  0  0
M  END
> <From>
www.bindingDB.org

> <BindingDB Reactant_set_id>
50436568

> <Ligand InChI>
InChI=1S/C16H13F3N4OS/c1-9-4-10(16(17,18)19)6-11(5-9)22-15-20-3-2-13(23-15)14-21-12(7-24)8-25-14/h2-6,8,24H,7H2,1H3,(H,20,22,23)

> <Ligand InChI Key>
IUEXHNTZDWOAIZ-UHFFFAOYSA-N

> <BindingDB MonomerID>
50275358

> <BindingDB Ligand Name>
(2-(2-(3-methyl-5-(trifluoromethyl)phenylamino)pyrimidin-4-yl)thiazol-4-yl)methanol::CHEMBL485731

> <Target Name Assigned by Curator or DataSource>
Cyclin-dependent kinase 2

> <Target Source Organism According to Curator or DataSource>
Homo sapiens

> <Ki (nM)>
 1500

> <IC50 (nM)>


> <Kd (nM)>


> <EC50 (nM)>


> <kon (M-1-s-1)>


> <koff (s-1)>


> <pH>


> <Temp C>


> <Curation/DataSource>
ChEMBL

> <Article DOI>
10.1016/j.bmcl.2008.09.106

> <PMID>
18938080

> <PubChem AID>


> <Patent Number>


> <Authors>
Farmer, LJ; Bemis, G; Britt, SD; Cochran, J; Connors, M; Harrington, EM; Hoock, T; Markland, W; Nanthakumar, S; Taslimi, P; Ter Haar, E; Wang, J; Zhaveri, D; Salituro, FG

> <Institution>
Vertex Pharmaceuticals Inc

> <Link to Ligand in BindingDB>
http://www.bindingdb.org/bind/chemsearch/marvin/MolStructure.jsp?monomerid=50275358

> <Link to Ligand-Target Pair in BindingDB>
http://www.bindingdb.org/jsp/dbsearch/PrimarySearch_ki.jsp?energyterm=kJ/mole&tag=pol&polymerid=796&target=Cyclin-dependent+kinase+2&column=ki&startPg=0&Increment=50&submit=Search

> <Link to Ligand-Target Pair in BindingDB>
http://www.bindingdb.org/jsp/dbsearch/PrimarySearch_ki.jsp?energyterm=kJ/mole&tag=r21&monomerid=50275358&enzyme=Cyclin-dependent+kinase+2&column=ki&startPg=0&Increment=50&submit=Search

> <Ligand HET ID in PDB>


> <PDB ID(s) for Ligand-Target Complex>


> <PubChem CID>
44589517

> <PubChem SID>
104118859

> <ChEBI ID of Ligand>


> <ChEMBL ID of Ligand>
CHEMBL485731

> <DrugBank ID of Ligand>


> <IUPHAR_GRAC ID of Ligand>


> <KEGG ID of Ligand>


> <ZINC ID of Ligand>
ZINC40938833

> <Number of Protein Chains in Target (bigger than 1 implies a multichain complex)>
1

> <BindingDB Target Chain Sequence>
MENFQKVEKIGEGTYGVVYKARNKLTGEVVALKKIRLDTETEGVPSTAIREISLLKELNHPNIVKLLDVIHTENKLYLVFEFLHQDLKKFMDASALTGIPLPLIKSYLFQLLQGLAFCHSHRVLHRDLKPQNLLINTEGAIKLADFGLARAFGVPVRTYTHEVVTLWYRAPEILLGCKYYSTAVDIWSLGCIFAEMVTRRALFPGDSEIDQLFRIFRTLGTPDEVVWPGVTSMPDYKPSFPKWARQDFSKVVPPLDEDGRSLLSQMLHYDPNKRISAKAALAHPFFQDVTKPVPHLRL

> <PDB ID(s) of Target Chain>
1CKP,1DI8,1DM2,1E1V,1E1X,1E9H,1F5Q,1FIN,1FQ1,1FVT,1FVV,1G5S,1GIH,1GY3,1GZ8,1H00,1H01,1H07,1H08,1H0V,1H0W,1H1P,1H1Q,1H1R,1H1S,1H24,1H25,1H26,1H27,1H28,1HCK,1HCL,1JST,1JSU,1JSV,1JVP,1KE5,1KE6,1KE7,1KE8,1KE9,1OGU,1OI9,1OIQ,1OIR,1OIU,1OIY,1OKV,1OKW,1OL1,1OL2,1P2A,1P5E,1PF8,1PKD,1PW2,1PXI,1PXJ,1PXK,1PXL,1PXM,1PXN,1PXO,1PXP,1PYE,1QMZ,1R78,1URC,1URW,1V1K,1VYW,1VYZ,1W0X,1W8C,1W98,1WCC,1Y8Y,1Y91,1YKR,2A0C,2A4L,2B52,2B53,2B54,2B55,2BHE,2BHH,2BKZ,2BPM,2BTR,2BTS,2C4G,2C5N,2C5O,2C5V,2C5X,2C5Y,2C68,2C69,2C6I,2C6K,2C6L,2C6M,2C6O,2C6T,2CCH,2CCI,2CJM,2CLX,2DUV,2EXM,2FVD,2G9X,2I40,2J9M,2JGZ,2R3F,2R3G,2R3H,2R3I,2R3J,2R3K,2R3L,2R3M,2R3N,2R3O,2R3P,2R3Q,2R3R,2R64,2UUE,2UZB,2UZD,2UZE,2UZL,2UZN,2UZO,2V0D,2V22,2VTA,2VTH,2VTI,2VTJ,2VTL,2VTM,2VTN,2VTO,2VTP,2VTQ,2VTR,2VTS,2VTT,2VU3,2VV9,2W05,2W06,2W17,2W1H,2WEV,2WFY,2WHB,2WIH,2WIP,2WMA,2WMB,2WPA,2WXV,2X1N,2XMY,2XNB,3BHT,3BHU,3BHV,3DDP,3DDQ,3DOG,3EID,3EJ1,3EOC,3EZR,3EZV,3F5X,3FZ1,3IG7,3IGG,3LE6,3LFN,3LFQ,3LFS,3MY5,3NS9,3PJ8,3PXF,3PXQ,3PXR,3PXY,3PXZ,3PY0,3PY1,3QHR,3QHW,3QL8,3QQF,3QQG,3QQH,3QQJ,3QQK,3QQL,3QRT,3QRU,3QTQ,3QTR,3QTS,3QTU,3QTW,3QTX,3QTZ,3QU0,3QWJ,3QWK,3QX2,3QX4,3QXO,3QXP,3QZF,3QZG,3QZH,3QZI,3R1Q,3R1S,3R1Y,3R28,3R6X,3R71,3R73,3R7E,3R7I,3R7U,3R7V,3R7Y,3R83,3R8L,3R8M,3R8P,3R8U,3R8V,3R8Z,3R9D,3R9H,3R9N,3R9O,3RAH,3RAI,3RAK,3RAL,3RJC,3RK5,3RK7,3RK9,3RKB,3RM6,3RM7,3RMF,3RNI,3ROY,3RPO,3RPR,3RPV,3RPY,3RZB,3S00,3S0O,3S1H,3S2P,3SQQ,3SW4,3SW7,3TI1,3TIY,3TIZ,3TNW,3ULI,3UNJ,3UNK,3WBL,4ACM,4BCK,4BCM,4BCN,4BCO,4BCP,4BCQ,4BGH,4BZD,4CFM,4CFN,4CFU,4CFV,4CFW,4CFX,4D1X,4D1Z,4EK3,4EK4,4EK5,4EK6,4EK8,4EOQ,4EOR,4EOS,4ERW,4EZ3,4EZ7,4FKG,4FKI,4FKJ,4FKL,4FKO,4FKP,4FKQ,4FKR,4FKS,4FKT,4FKU,4FKV,4FKW,4FX3,4GCJ,4I3Z,4II5,4KD1,4LYN,4NJ3,4RJ3,5A14,5AND,5ANE,5ANG,5ANI,5ANJ,5ANK,5ANO,5CYI,5D1J,5FP5,5FP6,5IEV,5IEX,5IEY,5IF1,5JQ5,5JQ8,5K4J,5L2W,5LMK,5MHQ,5NEV,5OO0,5OSJ,5UQ1,5UQ2,5UQ3,6ATH,6GUB,6GUC,6GUE,6GUF,6GUH,6GUK,6GVA,6INL,6JGM,6OQI,6P3W,6Q3B,6Q3C,6Q3F,6Q48,6Q49,6Q4A,6Q4B,6Q4C,6Q4D,6Q4E,6Q4F,6Q4H,6Q4J,6Q4K,6RIJ,6SG4,7ACK,7B5L,7B5R,7B7S,7E34,7KJS,7M2F,7NVQ

> <UniProt (SwissProt) Recommended Name of Target Chain>
Cyclin-dependent kinase 2

> <UniProt (SwissProt) Entry Name of Target Chain>
CDK2_HUMAN

> <UniProt (SwissProt) Primary ID of Target Chain>
P24941

> <UniProt (SwissProt) Secondary ID(s) of Target Chain>
A8K7C6,O75100

> <UniProt (SwissProt) Alternative ID(s) of Target Chain>


> <UniProt (TrEMBL) Submitted Name of Target Chain>


> <UniProt (TrEMBL) Entry Name of Target Chain>


> <UniProt (TrEMBL) Primary ID of Target Chain>
A0A024RB77

> <UniProt (TrEMBL) Secondary ID(s) of Target Chain>


> <UniProt (TrEMBL) Alternative ID(s) of Target Chain>


$$$$
BindingDB_50276017_mol_1

Vconf v2.0 Academic SN VC001-00000579
 32 34  0  0  0  0  0  0  0  0999 V2000
    4.8630  -12.4940    0.0690 C   0  0  0  0  0  0  0  0  0  0  0
    4.8360  -13.7800    0.6370 C   0  0  0  0  0  0  0  0  0  0  0
    6.0550  -14.3900    1.0030 C   0  0  0  0  0  0  0  0  0  0  0
    7.2920  -13.7270    0.8420 C   0  0  0  0  0  0  0  0  0  0  0
    7.2850  -12.4280    0.2840 C   0  0  0  0  0  0  0  0  0  0  0
    6.0800  -11.8170   -0.1040 C   0  0  0  0  0  0  0  0  0  0  0
    3.6300  -14.3920    0.7640 N   0  0  0  0  0  0  0  0  0  0  0
    3.2120  -15.1350    1.8170 C   0  0  0  0  0  0  0  0  0  0  0
    1.9670  -15.6630    1.7710 N   0  0  0  0  0  0  0  0  0  0  0
    1.4680  -16.4110    2.7830 C   0  0  0  0  0  0  0  0  0  0  0
    2.2460  -16.6580    3.9230 C   0  0  0  0  0  0  0  0  0  0  0
    3.5380  -16.1040    3.9670 C   0  0  0  0  0  0  0  0  0  0  0
    3.9720  -15.3640    2.9180 N   0  0  0  0  0  0  0  0  0  0  0
    4.4000  -16.2880    5.0600 C   0  0  0  0  0  0  0  0  0  0  0
    5.9880  -15.5900    5.0830 S   0  0  0  0  0  0  0  0  0  0  0
    6.1850  -16.3130    6.6410 C   0  0  0  0  0  0  0  0  0  0  0
    5.0710  -17.0270    7.0530 C   0  0  0  0  0  0  0  0  0  0  0
    4.0790  -17.0030    6.1550 N   0  0  0  0  0  0  0  0  0  0  0
    6.0870  -10.5780   -0.6430 O   0  0  0  0  0  0  0  0  0  0  0
    8.5460  -14.4090    1.2570 C   0  0  0  0  0  0  0  0  0  0  0
    9.6830  -13.6600    1.0600 F   0  0  0  0  0  0  0  0  0  0  0
    8.4970  -14.7170    2.5960 F   0  0  0  0  0  0  0  0  0  0  0
    8.7060  -15.5760    0.5490 F   0  0  0  0  0  0  0  0  0  0  0
    3.9930  -12.0430   -0.2170 H   0  0  0  0  0  0  0  0  0  0  0
    6.0470  -15.3340    1.3920 H   0  0  0  0  0  0  0  0  0  0  0
    8.1610  -11.9230    0.1530 H   0  0  0  0  0  0  0  0  0  0  0
    2.9860  -14.2470    0.0550 H   0  0  0  0  0  0  0  0  0  0  0
    0.5260  -16.7950    2.7160 H   0  0  0  0  0  0  0  0  0  0  0
    1.8770  -17.2210    4.6900 H   0  0  0  0  0  0  0  0  0  0  0
    7.0340  -16.2220    7.1990 H   0  0  0  0  0  0  0  0  0  0  0
    5.0130  -17.5190    7.9450 H   0  0  0  0  0  0  0  0  0  0  0
    6.9750  -10.1740   -0.7320 H   0  0  0  0  0  0  0  0  0  0  0
  1  2  1  0  0  0  0
  1  6  2  0  0  0  0
  1 24  1  0  0  0  0
  2  3  2  0  0  0  0
  2  7  1  0  0  0  0
  3  4  1  0  0  0  0
  3 25  1  0  0  0  0
  4  5  2  0  0  0  0
  4 20  1  0  0  0  0
  5  6  1  0  0  0  0
  5 26  1  0  0  0  0
  6 19  1  0  0  0  0
  7  8  1  0  0  0  0
  7 27  1  0  0  0  0
  8  9  1  0  0  0  0
  8 13  2  0  0  0  0
  9 10  2  0  0  0  0
 10 11  1  0  0  0  0
 10 28  1  0  0  0  0
 11 12  2  0  0  0  0
 11 29  1  0  0  0  0
 12 13  1  0  0  0  0
 12 14  1  0  0  0  0
 14 15  1  0  0  0  0
 14 18  2  0  0  0  0
 15 16  1  0  0  0  0
 16 17  2  0  0  0  0
 16 30  1  0  0  0  0
 17 18  1  0  0  0  0
 17 31  1  0  0  0  0
 19 32  1  0  0  0  0
 20 21  1  0  0  0  0
 20 22  1  0  0  0  0
 20 23  1  0  0  0  0
M  END
> <From>
www.bindingDB.org

> <BindingDB Reactant_set_id>
50436567

> <Ligand InChI>
InChI=1S/C14H9F3N4OS/c15-14(16,17)8-5-9(7-10(22)6-8)20-13-19-2-1-11(21-13)12-18-3-4-23-12/h1-7,22H,(H,19,20,21)

> <Ligand InChI Key>
LDMSFYNGFVTKRW-UHFFFAOYSA-N

> <BindingDB MonomerID>
50276017

> <BindingDB Ligand Name>
3-(4-(thiazol-2-yl)pyrimidin-2-ylamino)-5-(trifluoromethyl)phenol::CHEMBL470175

> <Target Name Assigned by Curator or DataSource>
Cyclin-dependent kinase 2

> <Target Source Organism According to Curator or DataSource>
Homo sapiens

> <Ki (nM)>
 1652

> <IC50 (nM)>


> <Kd (nM)>


> <EC50 (nM)>


> <kon (M-1-s-1)>


> <koff (s-1)>


> <pH>


> <Temp C>


> <Curation/DataSource>
ChEMBL

> <Article DOI>
10.1016/j.bmcl.2008.09.106

> <PMID>
18938080

> <PubChem AID>


> <Patent Number>


> <Authors>
Farmer, LJ; Bemis, G; Britt, SD; Cochran, J; Connors, M; Harrington, EM; Hoock, T; Markland, W; Nanthakumar, S; Taslimi, P; Ter Haar, E; Wang, J; Zhaveri, D; Salituro, FG

> <Institution>
Vertex Pharmaceuticals Inc

> <Link to Ligand in BindingDB>
http://www.bindingdb.org/bind/chemsearch/marvin/MolStructure.jsp?monomerid=50276017

> <Link to Ligand-Target Pair in BindingDB>
http://www.bindingdb.org/jsp/dbsearch/PrimarySearch_ki.jsp?energyterm=kJ/mole&tag=pol&polymerid=796&target=Cyclin-dependent+kinase+2&column=ki&startPg=0&Increment=50&submit=Search

> <Link to Ligand-Target Pair in BindingDB>
http://www.bindingdb.org/jsp/dbsearch/PrimarySearch_ki.jsp?energyterm=kJ/mole&tag=r21&monomerid=50276017&enzyme=Cyclin-dependent+kinase+2&column=ki&startPg=0&Increment=50&submit=Search

> <Ligand HET ID in PDB>


> <PDB ID(s) for Ligand-Target Complex>


> <PubChem CID>
44590150

> <PubChem SID>
104119353

> <ChEBI ID of Ligand>


> <ChEMBL ID of Ligand>
CHEMBL470175

> <DrugBank ID of Ligand>


> <IUPHAR_GRAC ID of Ligand>


> <KEGG ID of Ligand>


> <ZINC ID of Ligand>
ZINC40893642

> <Number of Protein Chains in Target (bigger than 1 implies a multichain complex)>
1

> <BindingDB Target Chain Sequence>
MENFQKVEKIGEGTYGVVYKARNKLTGEVVALKKIRLDTETEGVPSTAIREISLLKELNHPNIVKLLDVIHTENKLYLVFEFLHQDLKKFMDASALTGIPLPLIKSYLFQLLQGLAFCHSHRVLHRDLKPQNLLINTEGAIKLADFGLARAFGVPVRTYTHEVVTLWYRAPEILLGCKYYSTAVDIWSLGCIFAEMVTRRALFPGDSEIDQLFRIFRTLGTPDEVVWPGVTSMPDYKPSFPKWARQDFSKVVPPLDEDGRSLLSQMLHYDPNKRISAKAALAHPFFQDVTKPVPHLRL

> <PDB ID(s) of Target Chain>
1CKP,1DI8,1DM2,1E1V,1E1X,1E9H,1F5Q,1FIN,1FQ1,1FVT,1FVV,1G5S,1GIH,1GY3,1GZ8,1H00,1H01,1H07,1H08,1H0V,1H0W,1H1P,1H1Q,1H1R,1H1S,1H24,1H25,1H26,1H27,1H28,1HCK,1HCL,1JST,1JSU,1JSV,1JVP,1KE5,1KE6,1KE7,1KE8,1KE9,1OGU,1OI9,1OIQ,1OIR,1OIU,1OIY,1OKV,1OKW,1OL1,1OL2,1P2A,1P5E,1PF8,1PKD,1PW2,1PXI,1PXJ,1PXK,1PXL,1PXM,1PXN,1PXO,1PXP,1PYE,1QMZ,1R78,1URC,1URW,1V1K,1VYW,1VYZ,1W0X,1W8C,1W98,1WCC,1Y8Y,1Y91,1YKR,2A0C,2A4L,2B52,2B53,2B54,2B55,2BHE,2BHH,2BKZ,2BPM,2BTR,2BTS,2C4G,2C5N,2C5O,2C5V,2C5X,2C5Y,2C68,2C69,2C6I,2C6K,2C6L,2C6M,2C6O,2C6T,2CCH,2CCI,2CJM,2CLX,2DUV,2EXM,2FVD,2G9X,2I40,2J9M,2JGZ,2R3F,2R3G,2R3H,2R3I,2R3J,2R3K,2R3L,2R3M,2R3N,2R3O,2R3P,2R3Q,2R3R,2R64,2UUE,2UZB,2UZD,2UZE,2UZL,2UZN,2UZO,2V0D,2V22,2VTA,2VTH,2VTI,2VTJ,2VTL,2VTM,2VTN,2VTO,2VTP,2VTQ,2VTR,2VTS,2VTT,2VU3,2VV9,2W05,2W06,2W17,2W1H,2WEV,2WFY,2WHB,2WIH,2WIP,2WMA,2WMB,2WPA,2WXV,2X1N,2XMY,2XNB,3BHT,3BHU,3BHV,3DDP,3DDQ,3DOG,3EID,3EJ1,3EOC,3EZR,3EZV,3F5X,3FZ1,3IG7,3IGG,3LE6,3LFN,3LFQ,3LFS,3MY5,3NS9,3PJ8,3PXF,3PXQ,3PXR,3PXY,3PXZ,3PY0,3PY1,3QHR,3QHW,3QL8,3QQF,3QQG,3QQH,3QQJ,3QQK,3QQL,3QRT,3QRU,3QTQ,3QTR,3QTS,3QTU,3QTW,3QTX,3QTZ,3QU0,3QWJ,3QWK,3QX2,3QX4,3QXO,3QXP,3QZF,3QZG,3QZH,3QZI,3R1Q,3R1S,3R1Y,3R28,3R6X,3R71,3R73,3R7E,3R7I,3R7U,3R7V,3R7Y,3R83,3R8L,3R8M,3R8P,3R8U,3R8V,3R8Z,3R9D,3R9H,3R9N,3R9O,3RAH,3RAI,3RAK,3RAL,3RJC,3RK5,3RK7,3RK9,3RKB,3RM6,3RM7,3RMF,3RNI,3ROY,3RPO,3RPR,3RPV,3RPY,3RZB,3S00,3S0O,3S1H,3S2P,3SQQ,3SW4,3SW7,3TI1,3TIY,3TIZ,3TNW,3ULI,3UNJ,3UNK,3WBL,4ACM,4BCK,4BCM,4BCN,4BCO,4BCP,4BCQ,4BGH,4BZD,4CFM,4CFN,4CFU,4CFV,4CFW,4CFX,4D1X,4D1Z,4EK3,4EK4,4EK5,4EK6,4EK8,4EOQ,4EOR,4EOS,4ERW,4EZ3,4EZ7,4FKG,4FKI,4FKJ,4FKL,4FKO,4FKP,4FKQ,4FKR,4FKS,4FKT,4FKU,4FKV,4FKW,4FX3,4GCJ,4I3Z,4II5,4KD1,4LYN,4NJ3,4RJ3,5A14,5AND,5ANE,5ANG,5ANI,5ANJ,5ANK,5ANO,5CYI,5D1J,5FP5,5FP6,5IEV,5IEX,5IEY,5IF1,5JQ5,5JQ8,5K4J,5L2W,5LMK,5MHQ,5NEV,5OO0,5OSJ,5UQ1,5UQ2,5UQ3,6ATH,6GUB,6GUC,6GUE,6GUF,6GUH,6GUK,6GVA,6INL,6JGM,6OQI,6P3W,6Q3B,6Q3C,6Q3F,6Q48,6Q49,6Q4A,6Q4B,6Q4C,6Q4D,6Q4E,6Q4F,6Q4H,6Q4J,6Q4K,6RIJ,6SG4,7ACK,7B5L,7B5R,7B7S,7E34,7KJS,7M2F,7NVQ

> <UniProt (SwissProt) Recommended Name of Target Chain>
Cyclin-dependent kinase 2

> <UniProt (SwissProt) Entry Name of Target Chain>
CDK2_HUMAN

> <UniProt (SwissProt) Primary ID of Target Chain>
P24941

> <UniProt (SwissProt) Secondary ID(s) of Target Chain>
A8K7C6,O75100

> <UniProt (SwissProt) Alternative ID(s) of Target Chain>


> <UniProt (TrEMBL) Submitted Name of Target Chain>


> <UniProt (TrEMBL) Entry Name of Target Chain>


> <UniProt (TrEMBL) Primary ID of Target Chain>
A0A024RB77

> <UniProt (TrEMBL) Secondary ID(s) of Target Chain>


> <UniProt (TrEMBL) Alternative ID(s) of Target Chain>


$$$$
BindingDB_50389113_mol_1

Vconf v2.0 Academic SN VC001-00000579
 63 66  0  0  0  0  0  0  0  0999 V2000
   23.3040    2.4580    0.3620 C   0  0  0  0  0  0  0  0  0  0  0
   24.1660    3.5720   -0.2700 C   0  0  0  0  0  0  0  0  0  0  0
   24.1100    1.6450    1.3960 C   0  0  0  0  0  0  0  0  0  0  0
   21.8580    3.9120    1.9880 N   0  0  0  0  0  0  0  0  0  0  0
   20.5550    4.0000    2.0350 N   0  0  0  0  0  0  0  0  0  0  0
   19.9420    3.2250    1.1120 C   0  0  0  0  0  0  0  0  0  0  0
   18.6220    3.0640    0.8690 N   0  0  0  0  0  0  0  0  0  0  0
   22.1300    3.0470    0.9990 C   0  0  0  0  0  0  0  0  0  0  0
   20.9780    2.6070    0.4420 C   0  0  0  0  0  0  0  0  0  0  0
   21.2050    1.6680   -0.6340 C   0  0  0  0  0  0  0  0  0  0  0
   22.6480    1.6200   -0.6290 N   0  0  0  0  0  0  0  0  0  0  0
   23.3030    0.8200   -1.5130 C   0  0  0  0  0  0  0  0  0  0  0
   24.6510    0.7610   -1.5320 N   0  0  0  0  0  0  0  0  0  0  0
   22.6470    0.1320   -2.3280 O   0  0  0  0  0  0  0  0  0  0  0
   17.6190    3.6870    1.5440 C   0  0  0  0  0  0  0  0  0  0  0
   16.2660    3.4430    1.2040 C   0  0  0  0  0  0  0  0  0  0  0
   17.8890    4.4900    2.4700 O   0  0  0  0  0  0  0  0  0  0  0
   15.2490    4.3350    1.6160 C   0  0  0  0  0  0  0  0  0  0  0
   13.9040    4.1000    1.2820 C   0  0  0  0  0  0  0  0  0  0  0
   13.5540    2.9670    0.5310 C   0  0  0  0  0  0  0  0  0  0  0
   14.5500    2.0690    0.1150 C   0  0  0  0  0  0  0  0  0  0  0
   15.8940    2.3050    0.4500 C   0  0  0  0  0  0  0  0  0  0  0
   25.4090   -0.0570   -2.4180 C   0  0  2  0  0  0  0  0  0  0  0
   25.2210   -1.5570   -2.0780 C   0  0  0  0  0  0  0  0  0  0  0
   26.0990   -2.4460   -2.8710 N   0  0  0  0  0  0  0  0  0  0  0
   26.0360   -3.8140   -2.3250 C   0  0  0  0  0  0  0  0  0  0  0
   25.6970   -2.4720   -4.2900 C   0  0  0  0  0  0  0  0  0  0  0
   26.8310    0.3500   -2.3240 C   0  0  0  0  0  0  0  0  0  0  0
   27.5070    0.8410   -3.4610 C   0  0  0  0  0  0  0  0  0  0  0
   28.8550    1.2290   -3.3790 C   0  0  0  0  0  0  0  0  0  0  0
   29.5420    1.1320   -2.1570 C   0  0  0  0  0  0  0  0  0  0  0
   28.8800    0.6450   -1.0180 C   0  0  0  0  0  0  0  0  0  0  0
   27.5320    0.2570   -1.1020 C   0  0  0  0  0  0  0  0  0  0  0
   23.5920    4.1030   -1.0310 H   0  0  0  0  0  0  0  0  0  0  0
   24.4780    4.2800    0.5000 H   0  0  0  0  0  0  0  0  0  0  0
   25.0570    3.1510   -0.7320 H   0  0  0  0  0  0  0  0  0  0  0
   23.5000    0.8300    1.7900 H   0  0  0  0  0  0  0  0  0  0  0
   25.0050    1.2250    0.9400 H   0  0  0  0  0  0  0  0  0  0  0
   24.4150    2.2910    2.2210 H   0  0  0  0  0  0  0  0  0  0  0
   20.0740    4.5620    2.6630 H   0  0  0  0  0  0  0  0  0  0  0
   18.3730    2.4580    0.1550 H   0  0  0  0  0  0  0  0  0  0  0
   20.7690    0.6950   -0.4010 H   0  0  0  0  0  0  0  0  0  0  0
   20.8190    2.0560   -1.5790 H   0  0  0  0  0  0  0  0  0  0  0
   25.1340    1.3270   -0.9140 H   0  0  0  0  0  0  0  0  0  0  0
   15.4820    5.1660    2.1620 H   0  0  0  0  0  0  0  0  0  0  0
   13.1810    4.7540    1.5850 H   0  0  0  0  0  0  0  0  0  0  0
   12.5780    2.7960    0.2880 H   0  0  0  0  0  0  0  0  0  0  0
   14.2970    1.2440   -0.4290 H   0  0  0  0  0  0  0  0  0  0  0
   16.5990    1.6340    0.1410 H   0  0  0  0  0  0  0  0  0  0  0
   25.0430    0.1150   -3.4320 H   0  0  0  0  0  0  0  0  0  0  0
   25.4380   -1.6980   -1.0170 H   0  0  0  0  0  0  0  0  0  0  0
   24.1800   -1.8370   -2.2480 H   0  0  0  0  0  0  0  0  0  0  0
   26.6960   -4.4700   -2.8950 H   0  0  0  0  0  0  0  0  0  0  0
   26.3660   -3.8100   -1.2850 H   0  0  0  0  0  0  0  0  0  0  0
   25.0160   -4.1990   -2.3760 H   0  0  0  0  0  0  0  0  0  0  0
   26.3270   -3.1740   -4.8380 H   0  0  0  0  0  0  0  0  0  0  0
   24.6540   -2.7790   -4.3860 H   0  0  0  0  0  0  0  0  0  0  0
   25.8220   -1.4850   -4.7330 H   0  0  0  0  0  0  0  0  0  0  0
   27.0180    0.9150   -4.3530 H   0  0  0  0  0  0  0  0  0  0  0
   29.3360    1.5820   -4.2070 H   0  0  0  0  0  0  0  0  0  0  0
   30.5200    1.4140   -2.0980 H   0  0  0  0  0  0  0  0  0  0  0
   29.3770    0.5730   -0.1300 H   0  0  0  0  0  0  0  0  0  0  0
   27.0590   -0.0960   -0.2690 H   0  0  0  0  0  0  0  0  0  0  0
  1  2  1  0  0  0  0
  1  3  1  0  0  0  0
  1  8  1  0  0  0  0
  1 11  1  0  0  0  0
  2 34  1  0  0  0  0
  2 35  1  0  0  0  0
  2 36  1  0  0  0  0
  3 37  1  0  0  0  0
  3 38  1  0  0  0  0
  3 39  1  0  0  0  0
  4  5  1  0  0  0  0
  4  8  2  0  0  0  0
  5  6  1  0  0  0  0
  5 40  1  0  0  0  0
  6  7  1  0  0  0  0
  6  9  2  0  0  0  0
  7 15  1  0  0  0  0
  7 41  1  0  0  0  0
  8  9  1  0  0  0  0
  9 10  1  0  0  0  0
 10 11  1  0  0  0  0
 10 42  1  0  0  0  0
 10 43  1  0  0  0  0
 11 12  1  0  0  0  0
 12 13  1  0  0  0  0
 12 14  2  0  0  0  0
 23 13  1  1  0  0  0
 13 44  1  0  0  0  0
 15 16  1  0  0  0  0
 15 17  2  0  0  0  0
 16 18  2  0  0  0  0
 16 22  1  0  0  0  0
 18 19  1  0  0  0  0
 18 45  1  0  0  0  0
 19 20  2  0  0  0  0
 19 46  1  0  0  0  0
 20 21  1  0  0  0  0
 20 47  1  0  0  0  0
 21 22  2  0  0  0  0
 21 48  1  0  0  0  0
 22 49  1  0  0  0  0
 23 24  1  0  0  0  0
 23 28  1  0  0  0  0
 23 50  1  0  0  0  0
 24 25  1  0  0  0  0
 24 51  1  0  0  0  0
 24 52  1  0  0  0  0
 25 26  1  0  0  0  0
 25 27  1  0  0  0  0
 26 53  1  0  0  0  0
 26 54  1  0  0  0  0
 26 55  1  0  0  0  0
 27 56  1  0  0  0  0
 27 57  1  0  0  0  0
 27 58  1  0  0  0  0
 28 29  2  0  0  0  0
 28 33  1  0  0  0  0
 29 30  1  0  0  0  0
 29 59  1  0  0  0  0
 30 31  2  0  0  0  0
 30 60  1  0  0  0  0
 31 32  1  0  0  0  0
 31 61  1  0  0  0  0
 32 33  2  0  0  0  0
 32 62  1  0  0  0  0
 33 63  1  0  0  0  0
M  END
> <From>
www.bindingDB.org

> <BindingDB Reactant_set_id>
50948462

> <Ligand InChI>
InChI=1S/C25H30N6O2/c1-25(2)21-19(22(29-28-21)27-23(32)18-13-9-6-10-14-18)15-31(25)24(33)26-20(16-30(3)4)17-11-7-5-8-12-17/h5-14,20H,15-16H2,1-4H3,(H,26,33)(H2,27,28,29,32)/t20-/m1/s1

> <Ligand InChI Key>
DRAPUDHCQNOIEX-HXUWFJFHSA-N

> <BindingDB MonomerID>
50389113

> <BindingDB Ligand Name>
CHEMBL2064558

> <Target Name Assigned by Curator or DataSource>
Cyclin-dependent kinase 2

> <Target Source Organism According to Curator or DataSource>
Homo sapiens

> <Ki (nM)>
 1800

> <IC50 (nM)>


> <Kd (nM)>


> <EC50 (nM)>


> <kon (M-1-s-1)>


> <koff (s-1)>


> <pH>


> <Temp C>


> <Curation/DataSource>
ChEMBL

> <Article DOI>
10.1021/jm300204j

> <PMID>
22554206

> <PubChem AID>


> <Patent Number>


> <Authors>
Guo, C; McAlpine, I; Zhang, J; Knighton, DD; Kephart, S; Johnson, MC; Li, H; Bouzida, D; Yang, A; Dong, L; Marakovits, J; Tikhe, J; Richardson, P; Guo, LC; Kania, R; Edwards, MP; Kraynov, E; Christensen, J; Piraino, J; Lee, J; Dagostino, E; Del-Carmen, C; Deng, YL; Smeal, T; Murray, BW

> <Institution>
Pfizer Inc

> <Link to Ligand in BindingDB>
http://www.bindingdb.org/bind/chemsearch/marvin/MolStructure.jsp?monomerid=50389113

> <Link to Ligand-Target Pair in BindingDB>
http://www.bindingdb.org/jsp/dbsearch/PrimarySearch_ki.jsp?energyterm=kJ/mole&tag=pol&polymerid=796&target=Cyclin-dependent+kinase+2&column=ki&startPg=0&Increment=50&submit=Search

> <Link to Ligand-Target Pair in BindingDB>
http://www.bindingdb.org/jsp/dbsearch/PrimarySearch_ki.jsp?energyterm=kJ/mole&tag=r21&monomerid=50389113&enzyme=Cyclin-dependent+kinase+2&column=ki&startPg=0&Increment=50&submit=Search

> <Ligand HET ID in PDB>


> <PDB ID(s) for Ligand-Target Complex>


> <PubChem CID>
24765900

> <PubChem SID>
160868196

> <ChEBI ID of Ligand>


> <ChEMBL ID of Ligand>
CHEMBL2064558

> <DrugBank ID of Ligand>


> <IUPHAR_GRAC ID of Ligand>


> <KEGG ID of Ligand>


> <ZINC ID of Ligand>
ZINC84726009

> <Number of Protein Chains in Target (bigger than 1 implies a multichain complex)>
1

> <BindingDB Target Chain Sequence>
MENFQKVEKIGEGTYGVVYKARNKLTGEVVALKKIRLDTETEGVPSTAIREISLLKELNHPNIVKLLDVIHTENKLYLVFEFLHQDLKKFMDASALTGIPLPLIKSYLFQLLQGLAFCHSHRVLHRDLKPQNLLINTEGAIKLADFGLARAFGVPVRTYTHEVVTLWYRAPEILLGCKYYSTAVDIWSLGCIFAEMVTRRALFPGDSEIDQLFRIFRTLGTPDEVVWPGVTSMPDYKPSFPKWARQDFSKVVPPLDEDGRSLLSQMLHYDPNKRISAKAALAHPFFQDVTKPVPHLRL

> <PDB ID(s) of Target Chain>
1CKP,1DI8,1DM2,1E1V,1E1X,1E9H,1F5Q,1FIN,1FQ1,1FVT,1FVV,1G5S,1GIH,1GY3,1GZ8,1H00,1H01,1H07,1H08,1H0V,1H0W,1H1P,1H1Q,1H1R,1H1S,1H24,1H25,1H26,1H27,1H28,1HCK,1HCL,1JST,1JSU,1JSV,1JVP,1KE5,1KE6,1KE7,1KE8,1KE9,1OGU,1OI9,1OIQ,1OIR,1OIU,1OIY,1OKV,1OKW,1OL1,1OL2,1P2A,1P5E,1PF8,1PKD,1PW2,1PXI,1PXJ,1PXK,1PXL,1PXM,1PXN,1PXO,1PXP,1PYE,1QMZ,1R78,1URC,1URW,1V1K,1VYW,1VYZ,1W0X,1W8C,1W98,1WCC,1Y8Y,1Y91,1YKR,2A0C,2A4L,2B52,2B53,2B54,2B55,2BHE,2BHH,2BKZ,2BPM,2BTR,2BTS,2C4G,2C5N,2C5O,2C5V,2C5X,2C5Y,2C68,2C69,2C6I,2C6K,2C6L,2C6M,2C6O,2C6T,2CCH,2CCI,2CJM,2CLX,2DUV,2EXM,2FVD,2G9X,2I40,2J9M,2JGZ,2R3F,2R3G,2R3H,2R3I,2R3J,2R3K,2R3L,2R3M,2R3N,2R3O,2R3P,2R3Q,2R3R,2R64,2UUE,2UZB,2UZD,2UZE,2UZL,2UZN,2UZO,2V0D,2V22,2VTA,2VTH,2VTI,2VTJ,2VTL,2VTM,2VTN,2VTO,2VTP,2VTQ,2VTR,2VTS,2VTT,2VU3,2VV9,2W05,2W06,2W17,2W1H,2WEV,2WFY,2WHB,2WIH,2WIP,2WMA,2WMB,2WPA,2WXV,2X1N,2XMY,2XNB,3BHT,3BHU,3BHV,3DDP,3DDQ,3DOG,3EID,3EJ1,3EOC,3EZR,3EZV,3F5X,3FZ1,3IG7,3IGG,3LE6,3LFN,3LFQ,3LFS,3MY5,3NS9,3PJ8,3PXF,3PXQ,3PXR,3PXY,3PXZ,3PY0,3PY1,3QHR,3QHW,3QL8,3QQF,3QQG,3QQH,3QQJ,3QQK,3QQL,3QRT,3QRU,3QTQ,3QTR,3QTS,3QTU,3QTW,3QTX,3QTZ,3QU0,3QWJ,3QWK,3QX2,3QX4,3QXO,3QXP,3QZF,3QZG,3QZH,3QZI,3R1Q,3R1S,3R1Y,3R28,3R6X,3R71,3R73,3R7E,3R7I,3R7U,3R7V,3R7Y,3R83,3R8L,3R8M,3R8P,3R8U,3R8V,3R8Z,3R9D,3R9H,3R9N,3R9O,3RAH,3RAI,3RAK,3RAL,3RJC,3RK5,3RK7,3RK9,3RKB,3RM6,3RM7,3RMF,3RNI,3ROY,3RPO,3RPR,3RPV,3RPY,3RZB,3S00,3S0O,3S1H,3S2P,3SQQ,3SW4,3SW7,3TI1,3TIY,3TIZ,3TNW,3ULI,3UNJ,3UNK,3WBL,4ACM,4BCK,4BCM,4BCN,4BCO,4BCP,4BCQ,4BGH,4BZD,4CFM,4CFN,4CFU,4CFV,4CFW,4CFX,4D1X,4D1Z,4EK3,4EK4,4EK5,4EK6,4EK8,4EOQ,4EOR,4EOS,4ERW,4EZ3,4EZ7,4FKG,4FKI,4FKJ,4FKL,4FKO,4FKP,4FKQ,4FKR,4FKS,4FKT,4FKU,4FKV,4FKW,4FX3,4GCJ,4I3Z,4II5,4KD1,4LYN,4NJ3,4RJ3,5A14,5AND,5ANE,5ANG,5ANI,5ANJ,5ANK,5ANO,5CYI,5D1J,5FP5,5FP6,5IEV,5IEX,5IEY,5IF1,5JQ5,5JQ8,5K4J,5L2W,5LMK,5MHQ,5NEV,5OO0,5OSJ,5UQ1,5UQ2,5UQ3,6ATH,6GUB,6GUC,6GUE,6GUF,6GUH,6GUK,6GVA,6INL,6JGM,6OQI,6P3W,6Q3B,6Q3C,6Q3F,6Q48,6Q49,6Q4A,6Q4B,6Q4C,6Q4D,6Q4E,6Q4F,6Q4H,6Q4J,6Q4K,6RIJ,6SG4,7ACK,7B5L,7B5R,7B7S,7E34,7KJS,7M2F,7NVQ

> <UniProt (SwissProt) Recommended Name of Target Chain>
Cyclin-dependent kinase 2

> <UniProt (SwissProt) Entry Name of Target Chain>
CDK2_HUMAN

> <UniProt (SwissProt) Primary ID of Target Chain>
P24941

> <UniProt (SwissProt) Secondary ID(s) of Target Chain>
A8K7C6,O75100

> <UniProt (SwissProt) Alternative ID(s) of Target Chain>


> <UniProt (TrEMBL) Submitted Name of Target Chain>


> <UniProt (TrEMBL) Entry Name of Target Chain>


> <UniProt (TrEMBL) Primary ID of Target Chain>
A0A024RB77

> <UniProt (TrEMBL) Secondary ID(s) of Target Chain>


> <UniProt (TrEMBL) Alternative ID(s) of Target Chain>


$$$$
BindingDB_50205468_mol_1

Vconf v2.0 Academic SN VC001-00000579
 27 29  0  0  0  0  0  0  0  0999 V2000
   -2.5550    0.0130    1.0740 C   0  0  0  0  0  0  0  0  0  0  0
   -2.5050   -1.3780    0.8870 C   0  0  0  0  0  0  0  0  0  0  0
   -0.3390    0.2370    0.0910 C   0  0  0  0  0  0  0  0  0  0  0
   -1.4810    0.8320    0.6690 C   0  0  0  0  0  0  0  0  0  0  0
   -0.2800   -1.1580   -0.1010 C   0  0  0  0  0  0  0  0  0  0  0
   -1.3730   -1.9680    0.2990 C   0  0  0  0  0  0  0  0  0  0  0
   -1.3190   -3.3120    0.1150 N   0  0  0  0  0  0  0  0  0  0  0
   -0.2510   -3.9340   -0.4440 C   0  0  0  0  0  0  0  0  0  0  0
    0.8580   -3.1790   -0.8570 C   0  0  0  0  0  0  0  0  0  0  0
    0.8380   -1.7860   -0.6830 C   0  0  0  0  0  0  0  0  0  0  0
   -1.5550    2.1900    0.8810 C   0  0  0  0  0  0  0  0  0  0  0
   -1.3430    3.1020   -0.0780 C   0  0  0  0  0  0  0  0  0  0  0
   -1.4240    4.4540    0.1150 C   0  0  0  0  0  0  0  0  0  0  0
   -1.1950    5.1590   -0.9550 N   0  0  0  0  0  0  0  0  0  0  0
   -0.9380    4.4060   -1.9880 C   0  0  0  0  0  0  0  0  0  0  0
   -0.9650    2.7010   -1.6920 S   0  0  0  0  0  0  0  0  0  0  0
   -1.6930    4.9920    1.2120 O   0  0  0  0  0  0  0  0  0  0  0
   -0.6720    4.9220   -3.1930 N   0  0  0  0  0  0  0  0  0  0  0
   -3.3830    0.4280    1.5060 H   0  0  0  0  0  0  0  0  0  0  0
   -3.2910   -1.9590    1.1800 H   0  0  0  0  0  0  0  0  0  0  0
    0.4520    0.8210   -0.1870 H   0  0  0  0  0  0  0  0  0  0  0
   -0.2550   -4.9470   -0.5630 H   0  0  0  0  0  0  0  0  0  0  0
    1.6670   -3.6370   -1.2780 H   0  0  0  0  0  0  0  0  0  0  0
    1.6430   -1.2330   -0.9830 H   0  0  0  0  0  0  0  0  0  0  0
   -1.8050    2.5020    1.7910 H   0  0  0  0  0  0  0  0  0  0  0
   -0.4840    4.3350   -3.9420 H   0  0  0  0  0  0  0  0  0  0  0
   -0.6680    5.8830   -3.3160 H   0  0  0  0  0  0  0  0  0  0  0
  1  2  1  0  0  0  0
  1  4  2  0  0  0  0
  1 19  1  0  0  0  0
  2  6  2  0  0  0  0
  2 20  1  0  0  0  0
  3  4  1  0  0  0  0
  3  5  2  0  0  0  0
  3 21  1  0  0  0  0
  4 11  1  0  0  0  0
  5  6  1  0  0  0  0
  5 10  1  0  0  0  0
  6  7  1  0  0  0  0
  7  8  2  0  0  0  0
  8  9  1  0  0  0  0
  8 22  1  0  0  0  0
  9 10  2  0  0  0  0
  9 23  1  0  0  0  0
 10 24  1  0  0  0  0
 11 12  2  0  0  0  0
 11 25  1  0  0  0  0
 12 13  1  0  0  0  0
 12 16  1  0  0  0  0
 13 14  1  0  0  0  0
 13 17  2  0  0  0  0
 14 15  2  0  0  0  0
 15 16  1  0  0  0  0
 15 18  1  0  0  0  0
 18 26  1  0  0  0  0
 18 27  1  0  0  0  0
M  END
> <From>
www.bindingDB.org

> <BindingDB Reactant_set_id>
50375328

> <Ligand InChI>
InChI=1S/C13H9N3OS/c14-13-16-12(17)11(18-13)7-8-3-4-10-9(6-8)2-1-5-15-10/h1-7H,(H2,14,16,17)

> <Ligand InChI Key>
GWSGFSPSQGXVFI-UHFFFAOYSA-N

> <BindingDB MonomerID>
50205468

> <BindingDB Ligand Name>
(Z)-2-amino-5-(quinolin-6-ylmethylene)thiazol-4(5H)-one::CHEMBL396377

> <Target Name Assigned by Curator or DataSource>
Cyclin-dependent kinase 2

> <Target Source Organism According to Curator or DataSource>
Homo sapiens

> <Ki (nM)>
 2000

> <IC50 (nM)>


> <Kd (nM)>


> <EC50 (nM)>


> <kon (M-1-s-1)>


> <koff (s-1)>


> <pH>


> <Temp C>


> <Curation/DataSource>
ChEMBL

> <Article DOI>
10.1016/j.bmcl.2007.01.081

> <PMID>
17303421

> <PubChem AID>


> <Patent Number>


> <Authors>
Chen, S; Chen, L; Le, NT; Zhao, C; Sidduri, A; Lou, JP; Michoud, C; Portland, L; Jackson, N; Liu, JJ; Konzelmann, F; Chi, F; Tovar, C; Xiang, Q; Chen, Y; Wen, Y; Vassilev, LT

> <Institution>
Roche Research Center

> <Link to Ligand in BindingDB>
http://www.bindingdb.org/bind/chemsearch/marvin/MolStructure.jsp?monomerid=50205468

> <Link to Ligand-Target Pair in BindingDB>
http://www.bindingdb.org/jsp/dbsearch/PrimarySearch_ki.jsp?energyterm=kJ/mole&tag=pol&polymerid=796&target=Cyclin-dependent+kinase+2&column=ki&startPg=0&Increment=50&submit=Search

> <Link to Ligand-Target Pair in BindingDB>
http://www.bindingdb.org/jsp/dbsearch/PrimarySearch_ki.jsp?energyterm=kJ/mole&tag=r21&monomerid=50205468&enzyme=Cyclin-dependent+kinase+2&column=ki&startPg=0&Increment=50&submit=Search

> <Ligand HET ID in PDB>


> <PDB ID(s) for Ligand-Target Complex>


> <PubChem CID>
2337532

> <PubChem SID>
104083816

> <ChEBI ID of Ligand>


> <ChEMBL ID of Ligand>
CHEMBL396377

> <DrugBank ID of Ligand>


> <IUPHAR_GRAC ID of Ligand>


> <KEGG ID of Ligand>


> <ZINC ID of Ligand>
ZINC06189674

> <Number of Protein Chains in Target (bigger than 1 implies a multichain complex)>
1

> <BindingDB Target Chain Sequence>
MENFQKVEKIGEGTYGVVYKARNKLTGEVVALKKIRLDTETEGVPSTAIREISLLKELNHPNIVKLLDVIHTENKLYLVFEFLHQDLKKFMDASALTGIPLPLIKSYLFQLLQGLAFCHSHRVLHRDLKPQNLLINTEGAIKLADFGLARAFGVPVRTYTHEVVTLWYRAPEILLGCKYYSTAVDIWSLGCIFAEMVTRRALFPGDSEIDQLFRIFRTLGTPDEVVWPGVTSMPDYKPSFPKWARQDFSKVVPPLDEDGRSLLSQMLHYDPNKRISAKAALAHPFFQDVTKPVPHLRL

> <PDB ID(s) of Target Chain>
1CKP,1DI8,1DM2,1E1V,1E1X,1E9H,1F5Q,1FIN,1FQ1,1FVT,1FVV,1G5S,1GIH,1GY3,1GZ8,1H00,1H01,1H07,1H08,1H0V,1H0W,1H1P,1H1Q,1H1R,1H1S,1H24,1H25,1H26,1H27,1H28,1HCK,1HCL,1JST,1JSU,1JSV,1JVP,1KE5,1KE6,1KE7,1KE8,1KE9,1OGU,1OI9,1OIQ,1OIR,1OIU,1OIY,1OKV,1OKW,1OL1,1OL2,1P2A,1P5E,1PF8,1PKD,1PW2,1PXI,1PXJ,1PXK,1PXL,1PXM,1PXN,1PXO,1PXP,1PYE,1QMZ,1R78,1URC,1URW,1V1K,1VYW,1VYZ,1W0X,1W8C,1W98,1WCC,1Y8Y,1Y91,1YKR,2A0C,2A4L,2B52,2B53,2B54,2B55,2BHE,2BHH,2BKZ,2BPM,2BTR,2BTS,2C4G,2C5N,2C5O,2C5V,2C5X,2C5Y,2C68,2C69,2C6I,2C6K,2C6L,2C6M,2C6O,2C6T,2CCH,2CCI,2CJM,2CLX,2DUV,2EXM,2FVD,2G9X,2I40,2J9M,2JGZ,2R3F,2R3G,2R3H,2R3I,2R3J,2R3K,2R3L,2R3M,2R3N,2R3O,2R3P,2R3Q,2R3R,2R64,2UUE,2UZB,2UZD,2UZE,2UZL,2UZN,2UZO,2V0D,2V22,2VTA,2VTH,2VTI,2VTJ,2VTL,2VTM,2VTN,2VTO,2VTP,2VTQ,2VTR,2VTS,2VTT,2VU3,2VV9,2W05,2W06,2W17,2W1H,2WEV,2WFY,2WHB,2WIH,2WIP,2WMA,2WMB,2WPA,2WXV,2X1N,2XMY,2XNB,3BHT,3BHU,3BHV,3DDP,3DDQ,3DOG,3EID,3EJ1,3EOC,3EZR,3EZV,3F5X,3FZ1,3IG7,3IGG,3LE6,3LFN,3LFQ,3LFS,3MY5,3NS9,3PJ8,3PXF,3PXQ,3PXR,3PXY,3PXZ,3PY0,3PY1,3QHR,3QHW,3QL8,3QQF,3QQG,3QQH,3QQJ,3QQK,3QQL,3QRT,3QRU,3QTQ,3QTR,3QTS,3QTU,3QTW,3QTX,3QTZ,3QU0,3QWJ,3QWK,3QX2,3QX4,3QXO,3QXP,3QZF,3QZG,3QZH,3QZI,3R1Q,3R1S,3R1Y,3R28,3R6X,3R71,3R73,3R7E,3R7I,3R7U,3R7V,3R7Y,3R83,3R8L,3R8M,3R8P,3R8U,3R8V,3R8Z,3R9D,3R9H,3R9N,3R9O,3RAH,3RAI,3RAK,3RAL,3RJC,3RK5,3RK7,3RK9,3RKB,3RM6,3RM7,3RMF,3RNI,3ROY,3RPO,3RPR,3RPV,3RPY,3RZB,3S00,3S0O,3S1H,3S2P,3SQQ,3SW4,3SW7,3TI1,3TIY,3TIZ,3TNW,3ULI,3UNJ,3UNK,3WBL,4ACM,4BCK,4BCM,4BCN,4BCO,4BCP,4BCQ,4BGH,4BZD,4CFM,4CFN,4CFU,4CFV,4CFW,4CFX,4D1X,4D1Z,4EK3,4EK4,4EK5,4EK6,4EK8,4EOQ,4EOR,4EOS,4ERW,4EZ3,4EZ7,4FKG,4FKI,4FKJ,4FKL,4FKO,4FKP,4FKQ,4FKR,4FKS,4FKT,4FKU,4FKV,4FKW,4FX3,4GCJ,4I3Z,4II5,4KD1,4LYN,4NJ3,4RJ3,5A14,5AND,5ANE,5ANG,5ANI,5ANJ,5ANK,5ANO,5CYI,5D1J,5FP5,5FP6,5IEV,5IEX,5IEY,5IF1,5JQ5,5JQ8,5K4J,5L2W,5LMK,5MHQ,5NEV,5OO0,5OSJ,5UQ1,5UQ2,5UQ3,6ATH,6GUB,6GUC,6GUE,6GUF,6GUH,6GUK,6GVA,6INL,6JGM,6OQI,6P3W,6Q3B,6Q3C,6Q3F,6Q48,6Q49,6Q4A,6Q4B,6Q4C,6Q4D,6Q4E,6Q4F,6Q4H,6Q4J,6Q4K,6RIJ,6SG4,7ACK,7B5L,7B5R,7B7S,7E34,7KJS,7M2F,7NVQ

> <UniProt (SwissProt) Recommended Name of Target Chain>
Cyclin-dependent kinase 2

> <UniProt (SwissProt) Entry Name of Target Chain>
CDK2_HUMAN

> <UniProt (SwissProt) Primary ID of Target Chain>
P24941

> <UniProt (SwissProt) Secondary ID(s) of Target Chain>
A8K7C6,O75100

> <UniProt (SwissProt) Alternative ID(s) of Target Chain>


> <UniProt (TrEMBL) Submitted Name of Target Chain>


> <UniProt (TrEMBL) Entry Name of Target Chain>


> <UniProt (TrEMBL) Primary ID of Target Chain>
A0A024RB77

> <UniProt (TrEMBL) Secondary ID(s) of Target Chain>


> <UniProt (TrEMBL) Alternative ID(s) of Target Chain>


$$$$
BindingDB_50205477_mol_1

Vconf v2.0 Academic SN VC001-00000579
 44 48  0  0  0  0  0  0  0  0999 V2000
    8.2080   -3.5040    1.4290 C   0  0  0  0  0  0  0  0  0  0  0
    8.2280   -4.9010    1.2730 C   0  0  0  0  0  0  0  0  0  0  0
   10.3070   -3.3280    0.2090 C   0  0  0  0  0  0  0  0  0  0  0
    9.2370   -2.7060    0.8890 C   0  0  0  0  0  0  0  0  0  0  0
   10.3310   -4.7270    0.0420 C   0  0  0  0  0  0  0  0  0  0  0
    9.2830   -5.5160    0.5780 C   0  0  0  0  0  0  0  0  0  0  0
    9.3050   -6.8640    0.4180 N   0  0  0  0  0  0  0  0  0  0  0
   10.2990   -7.5080   -0.2440 C   0  0  0  0  0  0  0  0  0  0  0
   11.3610   -6.7740   -0.7950 C   0  0  0  0  0  0  0  0  0  0  0
   11.3720   -5.3770   -0.6480 C   0  0  0  0  0  0  0  0  0  0  0
    9.1870   -1.3390    1.0560 C   0  0  0  0  0  0  0  0  0  0  0
    9.3250   -0.4720    0.0430 C   0  0  0  0  0  0  0  0  0  0  0
    9.2710    0.8900    0.1680 C   0  0  0  0  0  0  0  0  0  0  0
    9.4330    1.5340   -0.9550 N   0  0  0  0  0  0  0  0  0  0  0
    9.6080    0.7260   -1.9640 C   0  0  0  0  0  0  0  0  0  0  0
    9.5710   -0.9580   -1.5690 S   0  0  0  0  0  0  0  0  0  0  0
    9.0900    1.4880    1.2510 O   0  0  0  0  0  0  0  0  0  0  0
    9.8050    1.1770   -3.2140 N   0  0  0  0  0  0  0  0  0  0  0
   10.0250    0.2870   -4.2930 C   0  0  2  0  0  0  0  0  0  0  0
    9.2290    0.4460   -5.5890 C   0  0  0  0  0  0  0  0  0  0  0
    8.9790   -0.7670   -4.6870 C   0  0  1  0  0  0  0  0  0  0  0
    9.3460   -2.1210   -5.1200 C   0  0  0  0  0  0  0  0  0  0  0
   10.2400   -2.8970   -4.3550 C   0  0  0  0  0  0  0  0  0  0  0
   10.5720   -4.2010   -4.7600 C   0  0  0  0  0  0  0  0  0  0  0
   10.0120   -4.7360   -5.9330 C   0  0  0  0  0  0  0  0  0  0  0
    9.1210   -3.9660   -6.7000 C   0  0  0  0  0  0  0  0  0  0  0
    8.7880   -2.6630   -6.2940 C   0  0  0  0  0  0  0  0  0  0  0
    7.4320   -3.0710    1.9330 H   0  0  0  0  0  0  0  0  0  0  0
    7.4740   -5.4670    1.6630 H   0  0  0  0  0  0  0  0  0  0  0
   11.0670   -2.7600   -0.1680 H   0  0  0  0  0  0  0  0  0  0  0
   10.2740   -8.5240   -0.3390 H   0  0  0  0  0  0  0  0  0  0  0
   12.1130   -7.2490   -1.2940 H   0  0  0  0  0  0  0  0  0  0  0
   12.1430   -4.8400   -1.0480 H   0  0  0  0  0  0  0  0  0  0  0
    9.0140   -0.9870    1.9680 H   0  0  0  0  0  0  0  0  0  0  0
    9.8190    2.1330   -3.3740 H   0  0  0  0  0  0  0  0  0  0  0
   11.0900    0.0570   -4.3520 H   0  0  0  0  0  0  0  0  0  0  0
    9.7340    0.3330   -6.5480 H   0  0  0  0  0  0  0  0  0  0  0
    8.4670    1.2220   -5.6740 H   0  0  0  0  0  0  0  0  0  0  0
    8.0270   -0.8220   -4.1580 H   0  0  0  0  0  0  0  0  0  0  0
   10.6500   -2.5160   -3.5030 H   0  0  0  0  0  0  0  0  0  0  0
   11.2180   -4.7600   -4.2010 H   0  0  0  0  0  0  0  0  0  0  0
   10.2530   -5.6830   -6.2270 H   0  0  0  0  0  0  0  0  0  0  0
    8.7140   -4.3550   -7.5520 H   0  0  0  0  0  0  0  0  0  0  0
    8.1360   -2.1100   -6.8520 H   0  0  0  0  0  0  0  0  0  0  0
  1  2  1  0  0  0  0
  1  4  2  0  0  0  0
  1 28  1  0  0  0  0
  2  6  2  0  0  0  0
  2 29  1  0  0  0  0
  3  4  1  0  0  0  0
  3  5  2  0  0  0  0
  3 30  1  0  0  0  0
  4 11  1  0  0  0  0
  5  6  1  0  0  0  0
  5 10  1  0  0  0  0
  6  7  1  0  0  0  0
  7  8  2  0  0  0  0
  8  9  1  0  0  0  0
  8 31  1  0  0  0  0
  9 10  2  0  0  0  0
  9 32  1  0  0  0  0
 10 33  1  0  0  0  0
 11 12  2  0  0  0  0
 11 34  1  0  0  0  0
 12 13  1  0  0  0  0
 12 16  1  0  0  0  0
 13 14  1  0  0  0  0
 13 17  2  0  0  0  0
 14 15  2  0  0  0  0
 15 16  1  0  0  0  0
 15 18  1  0  0  0  0
 19 18  1  1  0  0  0
 18 35  1  0  0  0  0
 19 20  1  0  0  0  0
 19 21  1  0  0  0  0
 19 36  1  0  0  0  0
 20 21  1  0  0  0  0
 20 37  1  0  0  0  0
 20 38  1  0  0  0  0
 21 22  1  6  0  0  0
 21 39  1  0  0  0  0
 22 23  2  0  0  0  0
 22 27  1  0  0  0  0
 23 24  1  0  0  0  0
 23 40  1  0  0  0  0
 24 25  2  0  0  0  0
 24 41  1  0  0  0  0
 25 26  1  0  0  0  0
 25 42  1  0  0  0  0
 26 27  2  0  0  0  0
 26 43  1  0  0  0  0
 27 44  1  0  0  0  0
M  END
> <From>
www.bindingDB.org

> <BindingDB Reactant_set_id>
50375344

> <Ligand InChI>
InChI=1S/C22H17N3OS/c26-21-20(12-14-8-9-18-16(11-14)7-4-10-23-18)27-22(25-21)24-19-13-17(19)15-5-2-1-3-6-15/h1-12,17,19H,13H2,(H,24,25,26)/t17-,19+/m0/s1

> <Ligand InChI Key>
FITGAYHGSUWBQP-PKOBYXMFSA-N

> <BindingDB MonomerID>
50205477

> <BindingDB Ligand Name>
(Z)-2-((1R,2S)-2-phenylcyclopropylamino)-5-(quinolin-6-ylmethylene)thiazol-4(5H)-one::CHEMBL235345

> <Target Name Assigned by Curator or DataSource>
Cyclin-dependent kinase 2

> <Target Source Organism According to Curator or DataSource>
Homo sapiens

> <Ki (nM)>
>2000

> <IC50 (nM)>


> <Kd (nM)>


> <EC50 (nM)>


> <kon (M-1-s-1)>


> <koff (s-1)>


> <pH>


> <Temp C>


> <Curation/DataSource>
ChEMBL

> <Article DOI>
10.1016/j.bmcl.2007.01.081

> <PMID>
17303421

> <PubChem AID>


> <Patent Number>


> <Authors>
Chen, S; Chen, L; Le, NT; Zhao, C; Sidduri, A; Lou, JP; Michoud, C; Portland, L; Jackson, N; Liu, JJ; Konzelmann, F; Chi, F; Tovar, C; Xiang, Q; Chen, Y; Wen, Y; Vassilev, LT

> <Institution>
Roche Research Center

> <Link to Ligand in BindingDB>
http://www.bindingdb.org/bind/chemsearch/marvin/MolStructure.jsp?monomerid=50205477

> <Link to Ligand-Target Pair in BindingDB>
http://www.bindingdb.org/jsp/dbsearch/PrimarySearch_ki.jsp?energyterm=kJ/mole&tag=pol&polymerid=796&target=Cyclin-dependent+kinase+2&column=ki&startPg=0&Increment=50&submit=Search

> <Link to Ligand-Target Pair in BindingDB>
http://www.bindingdb.org/jsp/dbsearch/PrimarySearch_ki.jsp?energyterm=kJ/mole&tag=r21&monomerid=50205477&enzyme=Cyclin-dependent+kinase+2&column=ki&startPg=0&Increment=50&submit=Search

> <Ligand HET ID in PDB>


> <PDB ID(s) for Ligand-Target Complex>


> <PubChem CID>
16739279

> <PubChem SID>
104083825

> <ChEBI ID of Ligand>


> <ChEMBL ID of Ligand>
CHEMBL235345

> <DrugBank ID of Ligand>


> <IUPHAR_GRAC ID of Ligand>


> <KEGG ID of Ligand>


> <ZINC ID of Ligand>
ZINC28821318

> <Number of Protein Chains in Target (bigger than 1 implies a multichain complex)>
1

> <BindingDB Target Chain Sequence>
MENFQKVEKIGEGTYGVVYKARNKLTGEVVALKKIRLDTETEGVPSTAIREISLLKELNHPNIVKLLDVIHTENKLYLVFEFLHQDLKKFMDASALTGIPLPLIKSYLFQLLQGLAFCHSHRVLHRDLKPQNLLINTEGAIKLADFGLARAFGVPVRTYTHEVVTLWYRAPEILLGCKYYSTAVDIWSLGCIFAEMVTRRALFPGDSEIDQLFRIFRTLGTPDEVVWPGVTSMPDYKPSFPKWARQDFSKVVPPLDEDGRSLLSQMLHYDPNKRISAKAALAHPFFQDVTKPVPHLRL

> <PDB ID(s) of Target Chain>
1CKP,1DI8,1DM2,1E1V,1E1X,1E9H,1F5Q,1FIN,1FQ1,1FVT,1FVV,1G5S,1GIH,1GY3,1GZ8,1H00,1H01,1H07,1H08,1H0V,1H0W,1H1P,1H1Q,1H1R,1H1S,1H24,1H25,1H26,1H27,1H28,1HCK,1HCL,1JST,1JSU,1JSV,1JVP,1KE5,1KE6,1KE7,1KE8,1KE9,1OGU,1OI9,1OIQ,1OIR,1OIU,1OIY,1OKV,1OKW,1OL1,1OL2,1P2A,1P5E,1PF8,1PKD,1PW2,1PXI,1PXJ,1PXK,1PXL,1PXM,1PXN,1PXO,1PXP,1PYE,1QMZ,1R78,1URC,1URW,1V1K,1VYW,1VYZ,1W0X,1W8C,1W98,1WCC,1Y8Y,1Y91,1YKR,2A0C,2A4L,2B52,2B53,2B54,2B55,2BHE,2BHH,2BKZ,2BPM,2BTR,2BTS,2C4G,2C5N,2C5O,2C5V,2C5X,2C5Y,2C68,2C69,2C6I,2C6K,2C6L,2C6M,2C6O,2C6T,2CCH,2CCI,2CJM,2CLX,2DUV,2EXM,2FVD,2G9X,2I40,2J9M,2JGZ,2R3F,2R3G,2R3H,2R3I,2R3J,2R3K,2R3L,2R3M,2R3N,2R3O,2R3P,2R3Q,2R3R,2R64,2UUE,2UZB,2UZD,2UZE,2UZL,2UZN,2UZO,2V0D,2V22,2VTA,2VTH,2VTI,2VTJ,2VTL,2VTM,2VTN,2VTO,2VTP,2VTQ,2VTR,2VTS,2VTT,2VU3,2VV9,2W05,2W06,2W17,2W1H,2WEV,2WFY,2WHB,2WIH,2WIP,2WMA,2WMB,2WPA,2WXV,2X1N,2XMY,2XNB,3BHT,3BHU,3BHV,3DDP,3DDQ,3DOG,3EID,3EJ1,3EOC,3EZR,3EZV,3F5X,3FZ1,3IG7,3IGG,3LE6,3LFN,3LFQ,3LFS,3MY5,3NS9,3PJ8,3PXF,3PXQ,3PXR,3PXY,3PXZ,3PY0,3PY1,3QHR,3QHW,3QL8,3QQF,3QQG,3QQH,3QQJ,3QQK,3QQL,3QRT,3QRU,3QTQ,3QTR,3QTS,3QTU,3QTW,3QTX,3QTZ,3QU0,3QWJ,3QWK,3QX2,3QX4,3QXO,3QXP,3QZF,3QZG,3QZH,3QZI,3R1Q,3R1S,3R1Y,3R28,3R6X,3R71,3R73,3R7E,3R7I,3R7U,3R7V,3R7Y,3R83,3R8L,3R8M,3R8P,3R8U,3R8V,3R8Z,3R9D,3R9H,3R9N,3R9O,3RAH,3RAI,3RAK,3RAL,3RJC,3RK5,3RK7,3RK9,3RKB,3RM6,3RM7,3RMF,3RNI,3ROY,3RPO,3RPR,3RPV,3RPY,3RZB,3S00,3S0O,3S1H,3S2P,3SQQ,3SW4,3SW7,3TI1,3TIY,3TIZ,3TNW,3ULI,3UNJ,3UNK,3WBL,4ACM,4BCK,4BCM,4BCN,4BCO,4BCP,4BCQ,4BGH,4BZD,4CFM,4CFN,4CFU,4CFV,4CFW,4CFX,4D1X,4D1Z,4EK3,4EK4,4EK5,4EK6,4EK8,4EOQ,4EOR,4EOS,4ERW,4EZ3,4EZ7,4FKG,4FKI,4FKJ,4FKL,4FKO,4FKP,4FKQ,4FKR,4FKS,4FKT,4FKU,4FKV,4FKW,4FX3,4GCJ,4I3Z,4II5,4KD1,4LYN,4NJ3,4RJ3,5A14,5AND,5ANE,5ANG,5ANI,5ANJ,5ANK,5ANO,5CYI,5D1J,5FP5,5FP6,5IEV,5IEX,5IEY,5IF1,5JQ5,5JQ8,5K4J,5L2W,5LMK,5MHQ,5NEV,5OO0,5OSJ,5UQ1,5UQ2,5UQ3,6ATH,6GUB,6GUC,6GUE,6GUF,6GUH,6GUK,6GVA,6INL,6JGM,6OQI,6P3W,6Q3B,6Q3C,6Q3F,6Q48,6Q49,6Q4A,6Q4B,6Q4C,6Q4D,6Q4E,6Q4F,6Q4H,6Q4J,6Q4K,6RIJ,6SG4,7ACK,7B5L,7B5R,7B7S,7E34,7KJS,7M2F,7NVQ

> <UniProt (SwissProt) Recommended Name of Target Chain>
Cyclin-dependent kinase 2

> <UniProt (SwissProt) Entry Name of Target Chain>
CDK2_HUMAN

> <UniProt (SwissProt) Primary ID of Target Chain>
P24941

> <UniProt (SwissProt) Secondary ID(s) of Target Chain>
A8K7C6,O75100

> <UniProt (SwissProt) Alternative ID(s) of Target Chain>


> <UniProt (TrEMBL) Submitted Name of Target Chain>


> <UniProt (TrEMBL) Entry Name of Target Chain>


> <UniProt (TrEMBL) Primary ID of Target Chain>
A0A024RB77

> <UniProt (TrEMBL) Secondary ID(s) of Target Chain>


> <UniProt (TrEMBL) Alternative ID(s) of Target Chain>


$$$$
BindingDB_50389116_mol_1

Vconf v2.0 Academic SN VC001-00000579
 62 65  0  0  0  0  0  0  0  0999 V2000
   12.0400   -6.6770    0.5670 C   0  0  0  0  0  0  0  0  0  0  0
   13.0410   -5.6220    0.0530 C   0  0  0  0  0  0  0  0  0  0  0
   12.7060   -7.6230    1.5880 C   0  0  0  0  0  0  0  0  0  0  0
   10.6110   -5.1930    2.1830 N   0  0  0  0  0  0  0  0  0  0  0
    9.3190   -5.0030    2.1570 N   0  0  0  0  0  0  0  0  0  0  0
    8.7090   -5.6790    1.1570 C   0  0  0  0  0  0  0  0  0  0  0
    7.3990   -5.7220    0.8240 N   0  0  0  0  0  0  0  0  0  0  0
   10.8790   -6.0250    1.1660 C   0  0  0  0  0  0  0  0  0  0  0
    9.7340   -6.3420    0.5170 C   0  0  0  0  0  0  0  0  0  0  0
    9.9530   -7.2400   -0.5960 C   0  0  0  0  0  0  0  0  0  0  0
   11.3840   -7.3960   -0.5080 N   0  0  0  0  0  0  0  0  0  0  0
   12.0450   -8.1970   -1.3820 C   0  0  0  0  0  0  0  0  0  0  0
   13.3960   -8.3260   -1.3010 O   0  0  0  0  0  0  0  0  0  0  0
   11.4110   -8.8150   -2.2680 O   0  0  0  0  0  0  0  0  0  0  0
    6.4020   -5.0570    1.4670 C   0  0  0  0  0  0  0  0  0  0  0
    5.0610   -5.1720    1.0240 C   0  0  0  0  0  0  0  0  0  0  0
    6.6670   -4.3410    2.4630 O   0  0  0  0  0  0  0  0  0  0  0
    3.9910   -4.7780    1.8600 C   0  0  0  0  0  0  0  0  0  0  0
    2.6580   -4.8890    1.4280 C   0  0  0  0  0  0  0  0  0  0  0
    2.3740   -5.3950    0.1500 C   0  0  0  0  0  0  0  0  0  0  0
    3.4230   -5.7890   -0.6950 C   0  0  0  0  0  0  0  0  0  0  0
    4.7550   -5.6780   -0.2610 C   0  0  0  0  0  0  0  0  0  0  0
   14.0520   -9.5300   -1.7190 C   0  0  2  0  0  0  0  0  0  0  0
   13.9140  -10.6190   -0.6290 C   0  0  0  0  0  0  0  0  0  0  0
   15.4770   -9.2130   -1.9650 C   0  0  0  0  0  0  0  0  0  0  0
   16.2640   -8.6160   -0.9580 C   0  0  0  0  0  0  0  0  0  0  0
   17.6170   -8.3150   -1.1910 C   0  0  0  0  0  0  0  0  0  0  0
   18.1960   -8.6060   -2.4370 C   0  0  0  0  0  0  0  0  0  0  0
   17.4210   -9.1970   -3.4490 C   0  0  0  0  0  0  0  0  0  0  0
   16.0690   -9.4980   -3.2140 C   0  0  0  0  0  0  0  0  0  0  0
   12.5040  -10.9910   -0.3810 N   0  0  0  0  0  0  0  0  0  0  0
   11.9870  -11.8730   -1.4460 C   0  0  0  0  0  0  0  0  0  0  0
   12.3830  -11.6750    0.9180 C   0  0  0  0  0  0  0  0  0  0  0
   12.5700   -4.9970   -0.7080 H   0  0  0  0  0  0  0  0  0  0  0
   13.3740   -4.9910    0.8790 H   0  0  0  0  0  0  0  0  0  0  0
   13.9120   -6.1120   -0.3830 H   0  0  0  0  0  0  0  0  0  0  0
   12.0030   -8.4000    1.8940 H   0  0  0  0  0  0  0  0  0  0  0
   13.5820   -8.0950    1.1450 H   0  0  0  0  0  0  0  0  0  0  0
   13.0210   -7.0590    2.4670 H   0  0  0  0  0  0  0  0  0  0  0
    8.8430   -4.4370    2.7860 H   0  0  0  0  0  0  0  0  0  0  0
    7.1540   -6.2710    0.0650 H   0  0  0  0  0  0  0  0  0  0  0
    9.4350   -8.1880   -0.4410 H   0  0  0  0  0  0  0  0  0  0  0
    9.6550   -6.7770   -1.5380 H   0  0  0  0  0  0  0  0  0  0  0
    4.1750   -4.4080    2.7940 H   0  0  0  0  0  0  0  0  0  0  0
    1.8960   -4.6010    2.0430 H   0  0  0  0  0  0  0  0  0  0  0
    1.4060   -5.4760   -0.1640 H   0  0  0  0  0  0  0  0  0  0  0
    3.2180   -6.1560   -1.6240 H   0  0  0  0  0  0  0  0  0  0  0
    5.5000   -5.9660   -0.8970 H   0  0  0  0  0  0  0  0  0  0  0
   13.6030   -9.8950   -2.6460 H   0  0  0  0  0  0  0  0  0  0  0
   14.4820  -11.5060   -0.9190 H   0  0  0  0  0  0  0  0  0  0  0
   14.3400  -10.2280    0.2970 H   0  0  0  0  0  0  0  0  0  0  0
   15.8500   -8.3960   -0.0520 H   0  0  0  0  0  0  0  0  0  0  0
   18.1780   -7.8830   -0.4560 H   0  0  0  0  0  0  0  0  0  0  0
   19.1780   -8.3880   -2.6080 H   0  0  0  0  0  0  0  0  0  0  0
   17.8410   -9.4080   -4.3550 H   0  0  0  0  0  0  0  0  0  0  0
   15.5150   -9.9270   -3.9560 H   0  0  0  0  0  0  0  0  0  0  0
   10.9490  -12.1330   -1.2330 H   0  0  0  0  0  0  0  0  0  0  0
   12.0200  -11.3640   -2.4080 H   0  0  0  0  0  0  0  0  0  0  0
   12.5780  -12.7870   -1.5050 H   0  0  0  0  0  0  0  0  0  0  0
   11.3420  -11.9420    1.1000 H   0  0  0  0  0  0  0  0  0  0  0
   12.9930  -12.5800    0.9310 H   0  0  0  0  0  0  0  0  0  0  0
   12.7140  -11.0090    1.7160 H   0  0  0  0  0  0  0  0  0  0  0
  1  2  1  0  0  0  0
  1  3  1  0  0  0  0
  1  8  1  0  0  0  0
  1 11  1  0  0  0  0
  2 34  1  0  0  0  0
  2 35  1  0  0  0  0
  2 36  1  0  0  0  0
  3 37  1  0  0  0  0
  3 38  1  0  0  0  0
  3 39  1  0  0  0  0
  4  5  1  0  0  0  0
  4  8  2  0  0  0  0
  5  6  1  0  0  0  0
  5 40  1  0  0  0  0
  6  7  1  0  0  0  0
  6  9  2  0  0  0  0
  7 15  1  0  0  0  0
  7 41  1  0  0  0  0
  8  9  1  0  0  0  0
  9 10  1  0  0  0  0
 10 11  1  0  0  0  0
 10 42  1  0  0  0  0
 10 43  1  0  0  0  0
 11 12  1  0  0  0  0
 12 13  1  0  0  0  0
 12 14  2  0  0  0  0
 23 13  1  1  0  0  0
 15 16  1  0  0  0  0
 15 17  2  0  0  0  0
 16 18  2  0  0  0  0
 16 22  1  0  0  0  0
 18 19  1  0  0  0  0
 18 44  1  0  0  0  0
 19 20  2  0  0  0  0
 19 45  1  0  0  0  0
 20 21  1  0  0  0  0
 20 46  1  0  0  0  0
 21 22  2  0  0  0  0
 21 47  1  0  0  0  0
 22 48  1  0  0  0  0
 23 24  1  0  0  0  0
 23 25  1  0  0  0  0
 23 49  1  0  0  0  0
 24 31  1  0  0  0  0
 24 50  1  0  0  0  0
 24 51  1  0  0  0  0
 25 26  2  0  0  0  0
 25 30  1  0  0  0  0
 26 27  1  0  0  0  0
 26 52  1  0  0  0  0
 27 28  2  0  0  0  0
 27 53  1  0  0  0  0
 28 29  1  0  0  0  0
 28 54  1  0  0  0  0
 29 30  2  0  0  0  0
 29 55  1  0  0  0  0
 30 56  1  0  0  0  0
 31 32  1  0  0  0  0
 31 33  1  0  0  0  0
 32 57  1  0  0  0  0
 32 58  1  0  0  0  0
 32 59  1  0  0  0  0
 33 60  1  0  0  0  0
 33 61  1  0  0  0  0
 33 62  1  0  0  0  0
M  END
> <From>
www.bindingDB.org

> <BindingDB Reactant_set_id>
50948468

> <Ligand InChI>
InChI=1S/C25H29N5O3/c1-25(2)21-19(22(28-27-21)26-23(31)18-13-9-6-10-14-18)15-30(25)24(32)33-20(16-29(3)4)17-11-7-5-8-12-17/h5-14,20H,15-16H2,1-4H3,(H2,26,27,28,31)/t20-/m1/s1

> <Ligand InChI Key>
MOROKSJAULAYHU-HXUWFJFHSA-N

> <BindingDB MonomerID>
50389116

> <BindingDB Ligand Name>
CHEMBL2064561

> <Target Name Assigned by Curator or DataSource>
Cyclin-dependent kinase 2

> <Target Source Organism According to Curator or DataSource>
Homo sapiens

> <Ki (nM)>
 2000

> <IC50 (nM)>


> <Kd (nM)>


> <EC50 (nM)>


> <kon (M-1-s-1)>


> <koff (s-1)>


> <pH>


> <Temp C>


> <Curation/DataSource>
ChEMBL

> <Article DOI>
10.1021/jm300204j

> <PMID>
22554206

> <PubChem AID>


> <Patent Number>


> <Authors>
Guo, C; McAlpine, I; Zhang, J; Knighton, DD; Kephart, S; Johnson, MC; Li, H; Bouzida, D; Yang, A; Dong, L; Marakovits, J; Tikhe, J; Richardson, P; Guo, LC; Kania, R; Edwards, MP; Kraynov, E; Christensen, J; Piraino, J; Lee, J; Dagostino, E; Del-Carmen, C; Deng, YL; Smeal, T; Murray, BW

> <Institution>
Pfizer Inc

> <Link to Ligand in BindingDB>
http://www.bindingdb.org/bind/chemsearch/marvin/MolStructure.jsp?monomerid=50389116

> <Link to Ligand-Target Pair in BindingDB>
http://www.bindingdb.org/jsp/dbsearch/PrimarySearch_ki.jsp?energyterm=kJ/mole&tag=pol&polymerid=796&target=Cyclin-dependent+kinase+2&column=ki&startPg=0&Increment=50&submit=Search

> <Link to Ligand-Target Pair in BindingDB>
http://www.bindingdb.org/jsp/dbsearch/PrimarySearch_ki.jsp?energyterm=kJ/mole&tag=r21&monomerid=50389116&enzyme=Cyclin-dependent+kinase+2&column=ki&startPg=0&Increment=50&submit=Search

> <Ligand HET ID in PDB>


> <PDB ID(s) for Ligand-Target Complex>


> <PubChem CID>
57523680

> <PubChem SID>
160868199

> <ChEBI ID of Ligand>


> <ChEMBL ID of Ligand>
CHEMBL2064561

> <DrugBank ID of Ligand>


> <IUPHAR_GRAC ID of Ligand>


> <KEGG ID of Ligand>


> <ZINC ID of Ligand>
ZINC84727551

> <Number of Protein Chains in Target (bigger than 1 implies a multichain complex)>
1

> <BindingDB Target Chain Sequence>
MENFQKVEKIGEGTYGVVYKARNKLTGEVVALKKIRLDTETEGVPSTAIREISLLKELNHPNIVKLLDVIHTENKLYLVFEFLHQDLKKFMDASALTGIPLPLIKSYLFQLLQGLAFCHSHRVLHRDLKPQNLLINTEGAIKLADFGLARAFGVPVRTYTHEVVTLWYRAPEILLGCKYYSTAVDIWSLGCIFAEMVTRRALFPGDSEIDQLFRIFRTLGTPDEVVWPGVTSMPDYKPSFPKWARQDFSKVVPPLDEDGRSLLSQMLHYDPNKRISAKAALAHPFFQDVTKPVPHLRL

> <PDB ID(s) of Target Chain>
1CKP,1DI8,1DM2,1E1V,1E1X,1E9H,1F5Q,1FIN,1FQ1,1FVT,1FVV,1G5S,1GIH,1GY3,1GZ8,1H00,1H01,1H07,1H08,1H0V,1H0W,1H1P,1H1Q,1H1R,1H1S,1H24,1H25,1H26,1H27,1H28,1HCK,1HCL,1JST,1JSU,1JSV,1JVP,1KE5,1KE6,1KE7,1KE8,1KE9,1OGU,1OI9,1OIQ,1OIR,1OIU,1OIY,1OKV,1OKW,1OL1,1OL2,1P2A,1P5E,1PF8,1PKD,1PW2,1PXI,1PXJ,1PXK,1PXL,1PXM,1PXN,1PXO,1PXP,1PYE,1QMZ,1R78,1URC,1URW,1V1K,1VYW,1VYZ,1W0X,1W8C,1W98,1WCC,1Y8Y,1Y91,1YKR,2A0C,2A4L,2B52,2B53,2B54,2B55,2BHE,2BHH,2BKZ,2BPM,2BTR,2BTS,2C4G,2C5N,2C5O,2C5V,2C5X,2C5Y,2C68,2C69,2C6I,2C6K,2C6L,2C6M,2C6O,2C6T,2CCH,2CCI,2CJM,2CLX,2DUV,2EXM,2FVD,2G9X,2I40,2J9M,2JGZ,2R3F,2R3G,2R3H,2R3I,2R3J,2R3K,2R3L,2R3M,2R3N,2R3O,2R3P,2R3Q,2R3R,2R64,2UUE,2UZB,2UZD,2UZE,2UZL,2UZN,2UZO,2V0D,2V22,2VTA,2VTH,2VTI,2VTJ,2VTL,2VTM,2VTN,2VTO,2VTP,2VTQ,2VTR,2VTS,2VTT,2VU3,2VV9,2W05,2W06,2W17,2W1H,2WEV,2WFY,2WHB,2WIH,2WIP,2WMA,2WMB,2WPA,2WXV,2X1N,2XMY,2XNB,3BHT,3BHU,3BHV,3DDP,3DDQ,3DOG,3EID,3EJ1,3EOC,3EZR,3EZV,3F5X,3FZ1,3IG7,3IGG,3LE6,3LFN,3LFQ,3LFS,3MY5,3NS9,3PJ8,3PXF,3PXQ,3PXR,3PXY,3PXZ,3PY0,3PY1,3QHR,3QHW,3QL8,3QQF,3QQG,3QQH,3QQJ,3QQK,3QQL,3QRT,3QRU,3QTQ,3QTR,3QTS,3QTU,3QTW,3QTX,3QTZ,3QU0,3QWJ,3QWK,3QX2,3QX4,3QXO,3QXP,3QZF,3QZG,3QZH,3QZI,3R1Q,3R1S,3R1Y,3R28,3R6X,3R71,3R73,3R7E,3R7I,3R7U,3R7V,3R7Y,3R83,3R8L,3R8M,3R8P,3R8U,3R8V,3R8Z,3R9D,3R9H,3R9N,3R9O,3RAH,3RAI,3RAK,3RAL,3RJC,3RK5,3RK7,3RK9,3RKB,3RM6,3RM7,3RMF,3RNI,3ROY,3RPO,3RPR,3RPV,3RPY,3RZB,3S00,3S0O,3S1H,3S2P,3SQQ,3SW4,3SW7,3TI1,3TIY,3TIZ,3TNW,3ULI,3UNJ,3UNK,3WBL,4ACM,4BCK,4BCM,4BCN,4BCO,4BCP,4BCQ,4BGH,4BZD,4CFM,4CFN,4CFU,4CFV,4CFW,4CFX,4D1X,4D1Z,4EK3,4EK4,4EK5,4EK6,4EK8,4EOQ,4EOR,4EOS,4ERW,4EZ3,4EZ7,4FKG,4FKI,4FKJ,4FKL,4FKO,4FKP,4FKQ,4FKR,4FKS,4FKT,4FKU,4FKV,4FKW,4FX3,4GCJ,4I3Z,4II5,4KD1,4LYN,4NJ3,4RJ3,5A14,5AND,5ANE,5ANG,5ANI,5ANJ,5ANK,5ANO,5CYI,5D1J,5FP5,5FP6,5IEV,5IEX,5IEY,5IF1,5JQ5,5JQ8,5K4J,5L2W,5LMK,5MHQ,5NEV,5OO0,5OSJ,5UQ1,5UQ2,5UQ3,6ATH,6GUB,6GUC,6GUE,6GUF,6GUH,6GUK,6GVA,6INL,6JGM,6OQI,6P3W,6Q3B,6Q3C,6Q3F,6Q48,6Q49,6Q4A,6Q4B,6Q4C,6Q4D,6Q4E,6Q4F,6Q4H,6Q4J,6Q4K,6RIJ,6SG4,7ACK,7B5L,7B5R,7B7S,7E34,7KJS,7M2F,7NVQ

> <UniProt (SwissProt) Recommended Name of Target Chain>
Cyclin-dependent kinase 2

> <UniProt (SwissProt) Entry Name of Target Chain>
CDK2_HUMAN

> <UniProt (SwissProt) Primary ID of Target Chain>
P24941

> <UniProt (SwissProt) Secondary ID(s) of Target Chain>
A8K7C6,O75100

> <UniProt (SwissProt) Alternative ID(s) of Target Chain>


> <UniProt (TrEMBL) Submitted Name of Target Chain>


> <UniProt (TrEMBL) Entry Name of Target Chain>


> <UniProt (TrEMBL) Primary ID of Target Chain>
A0A024RB77

> <UniProt (TrEMBL) Secondary ID(s) of Target Chain>


> <UniProt (TrEMBL) Alternative ID(s) of Target Chain>


$$$$
BindingDB_50249318_mol_1

Vconf v2.0 Academic SN VC001-00000579
 44 46  0  0  0  0  0  0  0  0999 V2000
    4.2190  -23.2510    3.0250 C   0  0  0  0  0  0  0  0  0  0  0
    3.7990  -23.4370    1.6270 C   0  0  0  0  0  0  0  0  0  0  0
    3.5040  -24.7300    1.1550 C   0  0  0  0  0  0  0  0  0  0  0
    3.1080  -24.9340   -0.1800 C   0  0  0  0  0  0  0  0  0  0  0
    2.8130  -26.2950   -0.6520 C   0  0  0  0  0  0  0  0  0  0  0
    3.0030  -23.8260   -1.0450 C   0  0  0  0  0  0  0  0  0  0  0
    3.2790  -22.5240   -0.5880 C   0  0  0  0  0  0  0  0  0  0  0
    3.1790  -21.5080   -1.4840 N   0  0  0  0  0  0  0  0  0  0  0
    2.6780  -20.2710   -1.2510 C   0  0  0  0  0  0  0  0  0  0  0
    2.6540  -19.3880   -2.2770 N   0  0  0  0  0  0  0  0  0  0  0
    2.1650  -18.1340   -2.1310 C   0  0  0  0  0  0  0  0  0  0  0
    1.6620  -17.7160   -0.8920 C   0  0  0  0  0  0  0  0  0  0  0
    1.6860  -18.6380    0.1690 C   0  0  0  0  0  0  0  0  0  0  0
    2.1890  -19.8780   -0.0470 N   0  0  0  0  0  0  0  0  0  0  0
    1.2110  -18.3250    1.4520 C   0  0  0  0  0  0  0  0  0  0  0
    0.6950  -17.1310    1.7920 N   0  0  0  0  0  0  0  0  0  0  0
    0.3180  -17.0750    3.0760 C   0  0  0  0  0  0  0  0  0  0  0
   -0.2860  -15.8660    3.6450 C   0  0  0  0  0  0  0  0  0  0  0
    0.5610  -18.2700    3.7520 C   0  0  0  0  0  0  0  0  0  0  0
    0.2800  -18.5260    5.1700 C   0  0  0  0  0  0  0  0  0  0  0
    1.2510  -17.7740    6.0950 C   0  0  0  0  0  0  0  0  0  0  0
    0.9340  -18.0760    7.4460 O   0  0  0  0  0  0  0  0  0  0  0
    1.2540  -19.4870    2.7370 S   0  0  0  0  0  0  0  0  0  0  0
    3.6920  -22.3410    0.7490 C   0  0  0  0  0  0  0  0  0  0  0
    4.4140  -22.2000    3.2420 H   0  0  0  0  0  0  0  0  0  0  0
    3.4320  -23.6050    3.6930 H   0  0  0  0  0  0  0  0  0  0  0
    5.1290  -23.8230    3.2130 H   0  0  0  0  0  0  0  0  0  0  0
    3.5820  -25.5280    1.7870 H   0  0  0  0  0  0  0  0  0  0  0
    2.5240  -26.2950   -1.7040 H   0  0  0  0  0  0  0  0  0  0  0
    3.6970  -26.9230   -0.5320 H   0  0  0  0  0  0  0  0  0  0  0
    1.9940  -26.7150   -0.0650 H   0  0  0  0  0  0  0  0  0  0  0
    2.7190  -23.9700   -2.0150 H   0  0  0  0  0  0  0  0  0  0  0
    3.4490  -21.6980   -2.3950 H   0  0  0  0  0  0  0  0  0  0  0
    2.1640  -17.4920   -2.9240 H   0  0  0  0  0  0  0  0  0  0  0
    1.2920  -16.7710   -0.7740 H   0  0  0  0  0  0  0  0  0  0  0
   -0.5810  -16.0190    4.6830 H   0  0  0  0  0  0  0  0  0  0  0
    0.4330  -15.0480    3.5950 H   0  0  0  0  0  0  0  0  0  0  0
   -1.1700  -15.6010    3.0650 H   0  0  0  0  0  0  0  0  0  0  0
   -0.7470  -18.2410    5.4000 H   0  0  0  0  0  0  0  0  0  0  0
    0.3920  -19.5950    5.3570 H   0  0  0  0  0  0  0  0  0  0  0
    2.2760  -18.0890    5.8920 H   0  0  0  0  0  0  0  0  0  0  0
    1.1690  -16.6970    5.9450 H   0  0  0  0  0  0  0  0  0  0  0
    1.5150  -17.6420    8.1050 H   0  0  0  0  0  0  0  0  0  0  0
    3.9200  -21.4050    1.0870 H   0  0  0  0  0  0  0  0  0  0  0
  1  2  1  0  0  0  0
  1 25  1  0  0  0  0
  1 26  1  0  0  0  0
  1 27  1  0  0  0  0
  2  3  2  0  0  0  0
  2 24  1  0  0  0  0
  3  4  1  0  0  0  0
  3 28  1  0  0  0  0
  4  5  1  0  0  0  0
  4  6  2  0  0  0  0
  5 29  1  0  0  0  0
  5 30  1  0  0  0  0
  5 31  1  0  0  0  0
  6  7  1  0  0  0  0
  6 32  1  0  0  0  0
  7  8  1  0  0  0  0
  7 24  2  0  0  0  0
  8  9  1  0  0  0  0
  8 33  1  0  0  0  0
  9 10  2  0  0  0  0
  9 14  1  0  0  0  0
 10 11  1  0  0  0  0
 11 12  2  0  0  0  0
 11 34  1  0  0  0  0
 12 13  1  0  0  0  0
 12 35  1  0  0  0  0
 13 14  2  0  0  0  0
 13 15  1  0  0  0  0
 15 16  2  0  0  0  0
 15 23  1  0  0  0  0
 16 17  1  0  0  0  0
 17 18  1  0  0  0  0
 17 19  2  0  0  0  0
 18 36  1  0  0  0  0
 18 37  1  0  0  0  0
 18 38  1  0  0  0  0
 19 20  1  0  0  0  0
 19 23  1  0  0  0  0
 20 21  1  0  0  0  0
 20 39  1  0  0  0  0
 20 40  1  0  0  0  0
 21 22  1  0  0  0  0
 21 41  1  0  0  0  0
 21 42  1  0  0  0  0
 22 43  1  0  0  0  0
 24 44  1  0  0  0  0
M  END
> <From>
www.bindingDB.org

> <BindingDB Reactant_set_id>
50436573

> <Ligand InChI>
InChI=1S/C18H20N4OS/c1-11-8-12(2)10-14(9-11)21-18-19-6-4-15(22-18)17-20-13(3)16(24-17)5-7-23/h4,6,8-10,23H,5,7H2,1-3H3,(H,19,21,22)

> <Ligand InChI Key>
QIYHYLDEYCTUSQ-UHFFFAOYSA-N

> <BindingDB MonomerID>
50249318

> <BindingDB Ligand Name>
2-(2-(2-(3,5-dimethylphenylamino)pyrimidin-4-yl)-4-methylthiazol-5-yl)ethanol::CHEMBL471727

> <Target Name Assigned by Curator or DataSource>
Cyclin-dependent kinase 2

> <Target Source Organism According to Curator or DataSource>
Homo sapiens

> <Ki (nM)>
>2270

> <IC50 (nM)>


> <Kd (nM)>


> <EC50 (nM)>


> <kon (M-1-s-1)>


> <koff (s-1)>


> <pH>


> <Temp C>


> <Curation/DataSource>
ChEMBL

> <Article DOI>
10.1016/j.bmcl.2008.09.106

> <PMID>
18938080

> <PubChem AID>


> <Patent Number>


> <Authors>
Farmer, LJ; Bemis, G; Britt, SD; Cochran, J; Connors, M; Harrington, EM; Hoock, T; Markland, W; Nanthakumar, S; Taslimi, P; Ter Haar, E; Wang, J; Zhaveri, D; Salituro, FG

> <Institution>
Vertex Pharmaceuticals Inc

> <Link to Ligand in BindingDB>
http://www.bindingdb.org/bind/chemsearch/marvin/MolStructure.jsp?monomerid=50249318

> <Link to Ligand-Target Pair in BindingDB>
http://www.bindingdb.org/jsp/dbsearch/PrimarySearch_ki.jsp?energyterm=kJ/mole&tag=pol&polymerid=796&target=Cyclin-dependent+kinase+2&column=ki&startPg=0&Increment=50&submit=Search

> <Link to Ligand-Target Pair in BindingDB>
http://www.bindingdb.org/jsp/dbsearch/PrimarySearch_ki.jsp?energyterm=kJ/mole&tag=r21&monomerid=50249318&enzyme=Cyclin-dependent+kinase+2&column=ki&startPg=0&Increment=50&submit=Search

> <Ligand HET ID in PDB>


> <PDB ID(s) for Ligand-Target Complex>


> <PubChem CID>
44593470

> <PubChem SID>
104103645

> <ChEBI ID of Ligand>


> <ChEMBL ID of Ligand>
CHEMBL471727

> <DrugBank ID of Ligand>


> <IUPHAR_GRAC ID of Ligand>


> <KEGG ID of Ligand>


> <ZINC ID of Ligand>
ZINC40394270

> <Number of Protein Chains in Target (bigger than 1 implies a multichain complex)>
1

> <BindingDB Target Chain Sequence>
MENFQKVEKIGEGTYGVVYKARNKLTGEVVALKKIRLDTETEGVPSTAIREISLLKELNHPNIVKLLDVIHTENKLYLVFEFLHQDLKKFMDASALTGIPLPLIKSYLFQLLQGLAFCHSHRVLHRDLKPQNLLINTEGAIKLADFGLARAFGVPVRTYTHEVVTLWYRAPEILLGCKYYSTAVDIWSLGCIFAEMVTRRALFPGDSEIDQLFRIFRTLGTPDEVVWPGVTSMPDYKPSFPKWARQDFSKVVPPLDEDGRSLLSQMLHYDPNKRISAKAALAHPFFQDVTKPVPHLRL

> <PDB ID(s) of Target Chain>
1CKP,1DI8,1DM2,1E1V,1E1X,1E9H,1F5Q,1FIN,1FQ1,1FVT,1FVV,1G5S,1GIH,1GY3,1GZ8,1H00,1H01,1H07,1H08,1H0V,1H0W,1H1P,1H1Q,1H1R,1H1S,1H24,1H25,1H26,1H27,1H28,1HCK,1HCL,1JST,1JSU,1JSV,1JVP,1KE5,1KE6,1KE7,1KE8,1KE9,1OGU,1OI9,1OIQ,1OIR,1OIU,1OIY,1OKV,1OKW,1OL1,1OL2,1P2A,1P5E,1PF8,1PKD,1PW2,1PXI,1PXJ,1PXK,1PXL,1PXM,1PXN,1PXO,1PXP,1PYE,1QMZ,1R78,1URC,1URW,1V1K,1VYW,1VYZ,1W0X,1W8C,1W98,1WCC,1Y8Y,1Y91,1YKR,2A0C,2A4L,2B52,2B53,2B54,2B55,2BHE,2BHH,2BKZ,2BPM,2BTR,2BTS,2C4G,2C5N,2C5O,2C5V,2C5X,2C5Y,2C68,2C69,2C6I,2C6K,2C6L,2C6M,2C6O,2C6T,2CCH,2CCI,2CJM,2CLX,2DUV,2EXM,2FVD,2G9X,2I40,2J9M,2JGZ,2R3F,2R3G,2R3H,2R3I,2R3J,2R3K,2R3L,2R3M,2R3N,2R3O,2R3P,2R3Q,2R3R,2R64,2UUE,2UZB,2UZD,2UZE,2UZL,2UZN,2UZO,2V0D,2V22,2VTA,2VTH,2VTI,2VTJ,2VTL,2VTM,2VTN,2VTO,2VTP,2VTQ,2VTR,2VTS,2VTT,2VU3,2VV9,2W05,2W06,2W17,2W1H,2WEV,2WFY,2WHB,2WIH,2WIP,2WMA,2WMB,2WPA,2WXV,2X1N,2XMY,2XNB,3BHT,3BHU,3BHV,3DDP,3DDQ,3DOG,3EID,3EJ1,3EOC,3EZR,3EZV,3F5X,3FZ1,3IG7,3IGG,3LE6,3LFN,3LFQ,3LFS,3MY5,3NS9,3PJ8,3PXF,3PXQ,3PXR,3PXY,3PXZ,3PY0,3PY1,3QHR,3QHW,3QL8,3QQF,3QQG,3QQH,3QQJ,3QQK,3QQL,3QRT,3QRU,3QTQ,3QTR,3QTS,3QTU,3QTW,3QTX,3QTZ,3QU0,3QWJ,3QWK,3QX2,3QX4,3QXO,3QXP,3QZF,3QZG,3QZH,3QZI,3R1Q,3R1S,3R1Y,3R28,3R6X,3R71,3R73,3R7E,3R7I,3R7U,3R7V,3R7Y,3R83,3R8L,3R8M,3R8P,3R8U,3R8V,3R8Z,3R9D,3R9H,3R9N,3R9O,3RAH,3RAI,3RAK,3RAL,3RJC,3RK5,3RK7,3RK9,3RKB,3RM6,3RM7,3RMF,3RNI,3ROY,3RPO,3RPR,3RPV,3RPY,3RZB,3S00,3S0O,3S1H,3S2P,3SQQ,3SW4,3SW7,3TI1,3TIY,3TIZ,3TNW,3ULI,3UNJ,3UNK,3WBL,4ACM,4BCK,4BCM,4BCN,4BCO,4BCP,4BCQ,4BGH,4BZD,4CFM,4CFN,4CFU,4CFV,4CFW,4CFX,4D1X,4D1Z,4EK3,4EK4,4EK5,4EK6,4EK8,4EOQ,4EOR,4EOS,4ERW,4EZ3,4EZ7,4FKG,4FKI,4FKJ,4FKL,4FKO,4FKP,4FKQ,4FKR,4FKS,4FKT,4FKU,4FKV,4FKW,4FX3,4GCJ,4I3Z,4II5,4KD1,4LYN,4NJ3,4RJ3,5A14,5AND,5ANE,5ANG,5ANI,5ANJ,5ANK,5ANO,5CYI,5D1J,5FP5,5FP6,5IEV,5IEX,5IEY,5IF1,5JQ5,5JQ8,5K4J,5L2W,5LMK,5MHQ,5NEV,5OO0,5OSJ,5UQ1,5UQ2,5UQ3,6ATH,6GUB,6GUC,6GUE,6GUF,6GUH,6GUK,6GVA,6INL,6JGM,6OQI,6P3W,6Q3B,6Q3C,6Q3F,6Q48,6Q49,6Q4A,6Q4B,6Q4C,6Q4D,6Q4E,6Q4F,6Q4H,6Q4J,6Q4K,6RIJ,6SG4,7ACK,7B5L,7B5R,7B7S,7E34,7KJS,7M2F,7NVQ

> <UniProt (SwissProt) Recommended Name of Target Chain>
Cyclin-dependent kinase 2

> <UniProt (SwissProt) Entry Name of Target Chain>
CDK2_HUMAN

> <UniProt (SwissProt) Primary ID of Target Chain>
P24941

> <UniProt (SwissProt) Secondary ID(s) of Target Chain>
A8K7C6,O75100

> <UniProt (SwissProt) Alternative ID(s) of Target Chain>


> <UniProt (TrEMBL) Submitted Name of Target Chain>


> <UniProt (TrEMBL) Entry Name of Target Chain>


> <UniProt (TrEMBL) Primary ID of Target Chain>
A0A024RB77

> <UniProt (TrEMBL) Secondary ID(s) of Target Chain>


> <UniProt (TrEMBL) Alternative ID(s) of Target Chain>


$$$$
2-arylamino-pyrimidine

Vconf v2.0 Academic SN VC001-00000579
 49 51  0  0  0  0  0  0  0  0999 V2000
   -0.8210    3.4770    0.7310 C   0  0  0  0  0  0  0  0  0  0  0
   -2.0830    1.4640    0.6430 C   0  0  0  0  0  0  0  0  0  0  0
    0.2370    1.4090    0.1580 C   0  0  0  0  0  0  0  0  0  0  0
    0.3550    2.7980    0.3710 C   0  0  0  0  0  0  0  0  0  0  0
   -1.9870    2.7970    0.8520 N   0  0  0  0  0  0  0  0  0  0  0
   -0.9600    0.7940    0.2990 N   0  0  0  0  0  0  0  0  0  0  0
   -3.2270    0.7450    0.7560 N   0  0  0  0  0  0  0  0  0  0  0
   -4.4900    1.1530    1.0780 C   0  0  0  0  0  0  0  0  0  0  0
   -4.8930    2.4750    1.3690 C   0  0  0  0  0  0  0  0  0  0  0
   -6.2310    2.7670    1.6840 C   0  0  0  0  0  0  0  0  0  0  0
   -7.2100    1.7490    1.7200 C   0  0  0  0  0  0  0  0  0  0  0
   -6.8040    0.4280    1.4290 C   0  0  0  0  0  0  0  0  0  0  0
   -5.4660    0.1390    1.1130 C   0  0  0  0  0  0  0  0  0  0  0
   -0.7840    4.8200    0.9600 O   0  0  0  0  0  0  0  0  0  0  0
   -1.9790    5.5070    1.3420 C   0  0  0  0  0  0  0  0  0  0  0
   -1.6720    6.9970    1.5600 C   0  0  0  0  0  0  0  0  0  0  0
   -1.1790    7.6420    0.2510 C   0  0  0  0  0  0  0  0  0  0  0
   -0.8940    9.1370    0.4630 C   0  0  0  0  0  0  0  0  0  0  0
   -2.1520    9.8580    0.9700 C   0  0  0  0  0  0  0  0  0  0  0
   -2.6460    9.2160    2.2750 C   0  0  0  0  0  0  0  0  0  0  0
   -2.9330    7.7220    2.0630 C   0  0  0  0  0  0  0  0  0  0  0
    1.2840    0.6460   -0.1860 N   0  0  0  0  0  0  0  0  0  0  0
    1.4740    3.4910    0.2590 N   0  0  0  0  0  0  0  0  0  0  0
    2.5170    3.0530   -0.0310 O   0  0  0  0  0  0  0  0  0  0  0
   -8.5550    2.0540    2.0400 C   0  0  0  0  0  0  0  0  0  0  0
   -8.9150    3.2240    2.2980 O   0  0  0  0  0  0  0  0  0  0  0
   -9.5160    1.1160    2.0880 N   0  0  0  0  0  0  0  0  0  0  0
   -3.1280   -0.2030    0.5800 H   0  0  0  0  0  0  0  0  0  0  0
   -4.2280    3.2440    1.3560 H   0  0  0  0  0  0  0  0  0  0  0
   -6.4870    3.7350    1.8890 H   0  0  0  0  0  0  0  0  0  0  0
   -7.4790   -0.3370    1.4430 H   0  0  0  0  0  0  0  0  0  0  0
   -5.2040   -0.8270    0.9080 H   0  0  0  0  0  0  0  0  0  0  0
   -2.7360    5.4030    0.5620 H   0  0  0  0  0  0  0  0  0  0  0
   -2.3630    5.0840    2.2730 H   0  0  0  0  0  0  0  0  0  0  0
   -0.8890    7.0830    2.3150 H   0  0  0  0  0  0  0  0  0  0  0
   -1.9390    7.5260   -0.5230 H   0  0  0  0  0  0  0  0  0  0  0
   -0.2630    7.1490   -0.0760 H   0  0  0  0  0  0  0  0  0  0  0
   -0.0910    9.2530    1.1920 H   0  0  0  0  0  0  0  0  0  0  0
   -0.5810    9.5810   -0.4830 H   0  0  0  0  0  0  0  0  0  0  0
   -2.9360    9.7940    0.2140 H   0  0  0  0  0  0  0  0  0  0  0
   -1.9180   10.9070    1.1510 H   0  0  0  0  0  0  0  0  0  0  0
   -1.8860    9.3330    3.0480 H   0  0  0  0  0  0  0  0  0  0  0
   -3.5600    9.7150    2.5980 H   0  0  0  0  0  0  0  0  0  0  0
   -3.7360    7.6090    1.3330 H   0  0  0  0  0  0  0  0  0  0  0
   -3.2500    7.2830    3.0090 H   0  0  0  0  0  0  0  0  0  0  0
    1.1650   -0.3060   -0.3220 H   0  0  0  0  0  0  0  0  0  0  0
    2.1600    1.0480   -0.2980 H   0  0  0  0  0  0  0  0  0  0  0
  -10.4230    1.3740    2.3130 H   0  0  0  0  0  0  0  0  0  0  0
   -9.3060    0.1900    1.9000 H   0  0  0  0  0  0  0  0  0  0  0
  1  4  1  0  0  0  0
  1  5  2  0  0  0  0
  1 14  1  0  0  0  0
  2  5  1  0  0  0  0
  2  6  2  0  0  0  0
  2  7  1  0  0  0  0
  3  4  2  0  0  0  0
  3  6  1  0  0  0  0
  3 22  1  0  0  0  0
  4 23  1  0  0  0  0
  7  8  1  0  0  0  0
  7 28  1  0  0  0  0
  8  9  2  0  0  0  0
  8 13  1  0  0  0  0
  9 10  1  0  0  0  0
  9 29  1  0  0  0  0
 10 11  2  0  0  0  0
 10 30  1  0  0  0  0
 11 12  1  0  0  0  0
 11 25  1  0  0  0  0
 12 13  2  0  0  0  0
 12 31  1  0  0  0  0
 13 32  1  0  0  0  0
 14 15  1  0  0  0  0
 15 16  1  0  0  0  0
 15 33  1  0  0  0  0
 15 34  1  0  0  0  0
 16 17  1  0  0  0  0
 16 21  1  0  0  0  0
 16 35  1  0  0  0  0
 17 18  1  0  0  0  0
 17 36  1  0  0  0  0
 17 37  1  0  0  0  0
 18 19  1  0  0  0  0
 18 38  1  0  0  0  0
 18 39  1  0  0  0  0
 19 20  1  0  0  0  0
 19 40  1  0  0  0  0
 19 41  1  0  0  0  0
 20 21  1  0  0  0  0
 20 42  1  0  0  0  0
 20 43  1  0  0  0  0
 21 44  1  0  0  0  0
 21 45  1  0  0  0  0
 22 46  1  0  0  0  0
 22 47  1  0  0  0  0
 23 24  2  0  0  0  0
 25 26  2  0  0  0  0
 25 27  1  0  0  0  0
 27 48  1  0  0  0  0
 27 49  1  0  0  0  0
M  END
> <From>
www.bindingDB.org

> <BindingDB Reactant_set_id>
50357147

> <Ligand InChI>
InChI=1S/C18H22N6O3/c19-15-14(24-26)17(27-10-11-4-2-1-3-5-11)23-18(22-15)21-13-8-6-12(7-9-13)16(20)25/h6-9,11H,1-5,10H2,(H2,20,25)(H3,19,21,22,23)

> <Ligand InChI Key>
YBKLJTXDSBEVRV-UHFFFAOYSA-N

> <BindingDB MonomerID>
5594

> <BindingDB Ligand Name>
2-arylamino-pyrimidine deriv. 9d::4-{[4-amino-6-(cyclohexylmethoxy)-5-nitrosopyrimidin-2-yl]amino}benzamide::CHEMBL101801

> <Target Name Assigned by Curator or DataSource>
Cyclin-dependent kinase 2

> <Target Source Organism According to Curator or DataSource>
Homo sapiens

> <Ki (nM)>
 2400

> <IC50 (nM)>


> <Kd (nM)>


> <EC50 (nM)>


> <kon (M-1-s-1)>


> <koff (s-1)>


> <pH>


> <Temp C>


> <Curation/DataSource>
ChEMBL

> <Article DOI>
10.1021/jm060190+

> <PMID>
16913703

> <PubChem AID>


> <Patent Number>


> <Authors>
Heady, L; Fernandez-Serra, M; Mancera, RL; Joyce, S; Venkitaraman, AR; Artacho, E; Skylaris, CK; Ciacchi, LC; Payne, MC

> <Institution>
University of Cambridge

> <Link to Ligand in BindingDB>
http://www.bindingdb.org/bind/chemsearch/marvin/MolStructure.jsp?monomerid=5594

> <Link to Ligand-Target Pair in BindingDB>
http://www.bindingdb.org/jsp/dbsearch/PrimarySearch_ki.jsp?energyterm=kJ/mole&tag=pol&polymerid=796&target=Cyclin-dependent+kinase+2&column=ki&startPg=0&Increment=50&submit=Search

> <Link to Ligand-Target Pair in BindingDB>
http://www.bindingdb.org/jsp/dbsearch/PrimarySearch_ki.jsp?energyterm=kJ/mole&tag=r21&monomerid=5594&enzyme=Cyclin-dependent+kinase+2&column=ki&startPg=0&Increment=50&submit=Search

> <Ligand HET ID in PDB>
ST8

> <PDB ID(s) for Ligand-Target Complex>
1OGU

> <PubChem CID>
5289411

> <PubChem SID>
8035210

> <ChEBI ID of Ligand>


> <ChEMBL ID of Ligand>
CHEMBL101801

> <DrugBank ID of Ligand>
DB08572

> <IUPHAR_GRAC ID of Ligand>


> <KEGG ID of Ligand>


> <ZINC ID of Ligand>
ZINC03814451

> <Number of Protein Chains in Target (bigger than 1 implies a multichain complex)>
1

> <BindingDB Target Chain Sequence>
MENFQKVEKIGEGTYGVVYKARNKLTGEVVALKKIRLDTETEGVPSTAIREISLLKELNHPNIVKLLDVIHTENKLYLVFEFLHQDLKKFMDASALTGIPLPLIKSYLFQLLQGLAFCHSHRVLHRDLKPQNLLINTEGAIKLADFGLARAFGVPVRTYTHEVVTLWYRAPEILLGCKYYSTAVDIWSLGCIFAEMVTRRALFPGDSEIDQLFRIFRTLGTPDEVVWPGVTSMPDYKPSFPKWARQDFSKVVPPLDEDGRSLLSQMLHYDPNKRISAKAALAHPFFQDVTKPVPHLRL

> <PDB ID(s) of Target Chain>
1CKP,1DI8,1DM2,1E1V,1E1X,1E9H,1F5Q,1FIN,1FQ1,1FVT,1FVV,1G5S,1GIH,1GY3,1GZ8,1H00,1H01,1H07,1H08,1H0V,1H0W,1H1P,1H1Q,1H1R,1H1S,1H24,1H25,1H26,1H27,1H28,1HCK,1HCL,1JST,1JSU,1JSV,1JVP,1KE5,1KE6,1KE7,1KE8,1KE9,1OGU,1OI9,1OIQ,1OIR,1OIU,1OIY,1OKV,1OKW,1OL1,1OL2,1P2A,1P5E,1PF8,1PKD,1PW2,1PXI,1PXJ,1PXK,1PXL,1PXM,1PXN,1PXO,1PXP,1PYE,1QMZ,1R78,1URC,1URW,1V1K,1VYW,1VYZ,1W0X,1W8C,1W98,1WCC,1Y8Y,1Y91,1YKR,2A0C,2A4L,2B52,2B53,2B54,2B55,2BHE,2BHH,2BKZ,2BPM,2BTR,2BTS,2C4G,2C5N,2C5O,2C5V,2C5X,2C5Y,2C68,2C69,2C6I,2C6K,2C6L,2C6M,2C6O,2C6T,2CCH,2CCI,2CJM,2CLX,2DUV,2EXM,2FVD,2G9X,2I40,2J9M,2JGZ,2R3F,2R3G,2R3H,2R3I,2R3J,2R3K,2R3L,2R3M,2R3N,2R3O,2R3P,2R3Q,2R3R,2R64,2UUE,2UZB,2UZD,2UZE,2UZL,2UZN,2UZO,2V0D,2V22,2VTA,2VTH,2VTI,2VTJ,2VTL,2VTM,2VTN,2VTO,2VTP,2VTQ,2VTR,2VTS,2VTT,2VU3,2VV9,2W05,2W06,2W17,2W1H,2WEV,2WFY,2WHB,2WIH,2WIP,2WMA,2WMB,2WPA,2WXV,2X1N,2XMY,2XNB,3BHT,3BHU,3BHV,3DDP,3DDQ,3DOG,3EID,3EJ1,3EOC,3EZR,3EZV,3F5X,3FZ1,3IG7,3IGG,3LE6,3LFN,3LFQ,3LFS,3MY5,3NS9,3PJ8,3PXF,3PXQ,3PXR,3PXY,3PXZ,3PY0,3PY1,3QHR,3QHW,3QL8,3QQF,3QQG,3QQH,3QQJ,3QQK,3QQL,3QRT,3QRU,3QTQ,3QTR,3QTS,3QTU,3QTW,3QTX,3QTZ,3QU0,3QWJ,3QWK,3QX2,3QX4,3QXO,3QXP,3QZF,3QZG,3QZH,3QZI,3R1Q,3R1S,3R1Y,3R28,3R6X,3R71,3R73,3R7E,3R7I,3R7U,3R7V,3R7Y,3R83,3R8L,3R8M,3R8P,3R8U,3R8V,3R8Z,3R9D,3R9H,3R9N,3R9O,3RAH,3RAI,3RAK,3RAL,3RJC,3RK5,3RK7,3RK9,3RKB,3RM6,3RM7,3RMF,3RNI,3ROY,3RPO,3RPR,3RPV,3RPY,3RZB,3S00,3S0O,3S1H,3S2P,3SQQ,3SW4,3SW7,3TI1,3TIY,3TIZ,3TNW,3ULI,3UNJ,3UNK,3WBL,4ACM,4BCK,4BCM,4BCN,4BCO,4BCP,4BCQ,4BGH,4BZD,4CFM,4CFN,4CFU,4CFV,4CFW,4CFX,4D1X,4D1Z,4EK3,4EK4,4EK5,4EK6,4EK8,4EOQ,4EOR,4EOS,4ERW,4EZ3,4EZ7,4FKG,4FKI,4FKJ,4FKL,4FKO,4FKP,4FKQ,4FKR,4FKS,4FKT,4FKU,4FKV,4FKW,4FX3,4GCJ,4I3Z,4II5,4KD1,4LYN,4NJ3,4RJ3,5A14,5AND,5ANE,5ANG,5ANI,5ANJ,5ANK,5ANO,5CYI,5D1J,5FP5,5FP6,5IEV,5IEX,5IEY,5IF1,5JQ5,5JQ8,5K4J,5L2W,5LMK,5MHQ,5NEV,5OO0,5OSJ,5UQ1,5UQ2,5UQ3,6ATH,6GUB,6GUC,6GUE,6GUF,6GUH,6GUK,6GVA,6INL,6JGM,6OQI,6P3W,6Q3B,6Q3C,6Q3F,6Q48,6Q49,6Q4A,6Q4B,6Q4C,6Q4D,6Q4E,6Q4F,6Q4H,6Q4J,6Q4K,6RIJ,6SG4,7ACK,7B5L,7B5R,7B7S,7E34,7KJS,7M2F,7NVQ

> <UniProt (SwissProt) Recommended Name of Target Chain>
Cyclin-dependent kinase 2

> <UniProt (SwissProt) Entry Name of Target Chain>
CDK2_HUMAN

> <UniProt (SwissProt) Primary ID of Target Chain>
P24941

> <UniProt (SwissProt) Secondary ID(s) of Target Chain>
A8K7C6,O75100

> <UniProt (SwissProt) Alternative ID(s) of Target Chain>


> <UniProt (TrEMBL) Submitted Name of Target Chain>


> <UniProt (TrEMBL) Entry Name of Target Chain>


> <UniProt (TrEMBL) Primary ID of Target Chain>
A0A024RB77

> <UniProt (TrEMBL) Secondary ID(s) of Target Chain>


> <UniProt (TrEMBL) Alternative ID(s) of Target Chain>


$$$$
BindingDB_50276065_mol_1

Vconf v2.0 Academic SN VC001-00000579
 38 40  0  0  0  0  0  0  0  0999 V2000
   13.5360    3.0740    0.6520 C   0  0  0  0  0  0  0  0  0  0  0
   13.5500    1.6680    0.5830 C   0  0  0  0  0  0  0  0  0  0  0
   14.7740    0.9790    0.6660 C   0  0  0  0  0  0  0  0  0  0  0
   15.9840    1.6860    0.8070 C   0  0  0  0  0  0  0  0  0  0  0
   15.9570    3.0940    0.8680 C   0  0  0  0  0  0  0  0  0  0  0
   14.7370    3.7940    0.7900 C   0  0  0  0  0  0  0  0  0  0  0
   12.3910    0.9870    0.4520 N   0  0  0  0  0  0  0  0  0  0  0
   11.8870    0.5850   -0.7370 C   0  0  0  0  0  0  0  0  0  0  0
   10.7110   -0.0850   -0.7500 N   0  0  0  0  0  0  0  0  0  0  0
   10.1450   -0.5120   -1.9040 C   0  0  0  0  0  0  0  0  0  0  0
   10.7770   -0.2640   -3.1300 C   0  0  0  0  0  0  0  0  0  0  0
   12.0000    0.4310   -3.1090 C   0  0  0  0  0  0  0  0  0  0  0
   12.5100    0.8300   -1.9180 N   0  0  0  0  0  0  0  0  0  0  0
   12.7140    0.7320   -4.2800 C   0  0  0  0  0  0  0  0  0  0  0
   12.3040    0.3910   -5.5160 N   0  0  0  0  0  0  0  0  0  0  0
   13.1560    0.7920   -6.4680 C   0  0  0  0  0  0  0  0  0  0  0
   14.2550    1.4590   -5.9440 C   0  0  0  0  0  0  0  0  0  0  0
   14.2200    1.5910   -4.2210 S   0  0  0  0  0  0  0  0  0  0  0
   12.9450    0.5440   -7.8980 C   0  0  0  0  0  0  0  0  0  0  0
   12.8720    1.7740   -8.6080 O   0  0  0  0  0  0  0  0  0  0  0
   17.2530    0.9480    0.8870 C   0  0  0  0  0  0  0  0  0  0  0
   14.7010    5.2640    0.8500 C   0  0  0  0  0  0  0  0  0  0  0
   12.6470    3.5740    0.5940 H   0  0  0  0  0  0  0  0  0  0  0
   14.7850   -0.0410    0.6210 H   0  0  0  0  0  0  0  0  0  0  0
   16.8310    3.6120    0.9700 H   0  0  0  0  0  0  0  0  0  0  0
   11.8840    0.7840    1.2520 H   0  0  0  0  0  0  0  0  0  0  0
    9.2580   -1.0140   -1.8800 H   0  0  0  0  0  0  0  0  0  0  0
   10.3560   -0.5820   -4.0040 H   0  0  0  0  0  0  0  0  0  0  0
   15.0080    1.8370   -6.5190 H   0  0  0  0  0  0  0  0  0  0  0
   13.7710   -0.0500   -8.2900 H   0  0  0  0  0  0  0  0  0  0  0
   12.0140   -0.0050   -8.0410 H   0  0  0  0  0  0  0  0  0  0  0
   12.7190    1.6760   -9.5710 H   0  0  0  0  0  0  0  0  0  0  0
   18.1000    1.6290    0.9890 H   0  0  0  0  0  0  0  0  0  0  0
   17.2350    0.2820    1.7510 H   0  0  0  0  0  0  0  0  0  0  0
   17.3890    0.3550   -0.0180 H   0  0  0  0  0  0  0  0  0  0  0
   15.7050    5.6790    0.9560 H   0  0  0  0  0  0  0  0  0  0  0
   14.2570    5.6560   -0.0660 H   0  0  0  0  0  0  0  0  0  0  0
   14.0990    5.5800    1.7030 H   0  0  0  0  0  0  0  0  0  0  0
  1  2  1  0  0  0  0
  1  6  2  0  0  0  0
  1 23  1  0  0  0  0
  2  3  2  0  0  0  0
  2  7  1  0  0  0  0
  3  4  1  0  0  0  0
  3 24  1  0  0  0  0
  4  5  2  0  0  0  0
  4 21  1  0  0  0  0
  5  6  1  0  0  0  0
  5 25  1  0  0  0  0
  6 22  1  0  0  0  0
  7  8  1  0  0  0  0
  7 26  1  0  0  0  0
  8  9  1  0  0  0  0
  8 13  2  0  0  0  0
  9 10  2  0  0  0  0
 10 11  1  0  0  0  0
 10 27  1  0  0  0  0
 11 12  2  0  0  0  0
 11 28  1  0  0  0  0
 12 13  1  0  0  0  0
 12 14  1  0  0  0  0
 14 15  2  0  0  0  0
 14 18  1  0  0  0  0
 15 16  1  0  0  0  0
 16 17  2  0  0  0  0
 16 19  1  0  0  0  0
 17 18  1  0  0  0  0
 17 29  1  0  0  0  0
 19 20  1  0  0  0  0
 19 30  1  0  0  0  0
 19 31  1  0  0  0  0
 20 32  1  0  0  0  0
 21 33  1  0  0  0  0
 21 34  1  0  0  0  0
 21 35  1  0  0  0  0
 22 36  1  0  0  0  0
 22 37  1  0  0  0  0
 22 38  1  0  0  0  0
M  END
> <From>
www.bindingDB.org

> <BindingDB Reactant_set_id>
50436574

> <Ligand InChI>
InChI=1S/C16H16N4OS/c1-10-5-11(2)7-12(6-10)19-16-17-4-3-14(20-16)15-18-13(8-21)9-22-15/h3-7,9,21H,8H2,1-2H3,(H,17,19,20)

> <Ligand InChI Key>
UPRPVDAEXQKBSI-UHFFFAOYSA-N

> <BindingDB MonomerID>
50276065

> <BindingDB Ligand Name>
(2-(2-(3,5-dimethylphenylamino)pyrimidin-4-yl)thiazol-4-yl)methanol::CHEMBL511811

> <Target Name Assigned by Curator or DataSource>
Cyclin-dependent kinase 2

> <Target Source Organism According to Curator or DataSource>
Homo sapiens

> <Ki (nM)>
 2400

> <IC50 (nM)>


> <Kd (nM)>


> <EC50 (nM)>


> <kon (M-1-s-1)>


> <koff (s-1)>


> <pH>


> <Temp C>


> <Curation/DataSource>
ChEMBL

> <Article DOI>
10.1016/j.bmcl.2008.09.106

> <PMID>
18938080

> <PubChem AID>


> <Patent Number>


> <Authors>
Farmer, LJ; Bemis, G; Britt, SD; Cochran, J; Connors, M; Harrington, EM; Hoock, T; Markland, W; Nanthakumar, S; Taslimi, P; Ter Haar, E; Wang, J; Zhaveri, D; Salituro, FG

> <Institution>
Vertex Pharmaceuticals Inc

> <Link to Ligand in BindingDB>
http://www.bindingdb.org/bind/chemsearch/marvin/MolStructure.jsp?monomerid=50276065

> <Link to Ligand-Target Pair in BindingDB>
http://www.bindingdb.org/jsp/dbsearch/PrimarySearch_ki.jsp?energyterm=kJ/mole&tag=pol&polymerid=796&target=Cyclin-dependent+kinase+2&column=ki&startPg=0&Increment=50&submit=Search

> <Link to Ligand-Target Pair in BindingDB>
http://www.bindingdb.org/jsp/dbsearch/PrimarySearch_ki.jsp?energyterm=kJ/mole&tag=r21&monomerid=50276065&enzyme=Cyclin-dependent+kinase+2&column=ki&startPg=0&Increment=50&submit=Search

> <Ligand HET ID in PDB>


> <PDB ID(s) for Ligand-Target Complex>


> <PubChem CID>
44590205

> <PubChem SID>
104119389

> <ChEBI ID of Ligand>


> <ChEMBL ID of Ligand>
CHEMBL511811

> <DrugBank ID of Ligand>


> <IUPHAR_GRAC ID of Ligand>


> <KEGG ID of Ligand>


> <ZINC ID of Ligand>
ZINC06716290

> <Number of Protein Chains in Target (bigger than 1 implies a multichain complex)>
1

> <BindingDB Target Chain Sequence>
MENFQKVEKIGEGTYGVVYKARNKLTGEVVALKKIRLDTETEGVPSTAIREISLLKELNHPNIVKLLDVIHTENKLYLVFEFLHQDLKKFMDASALTGIPLPLIKSYLFQLLQGLAFCHSHRVLHRDLKPQNLLINTEGAIKLADFGLARAFGVPVRTYTHEVVTLWYRAPEILLGCKYYSTAVDIWSLGCIFAEMVTRRALFPGDSEIDQLFRIFRTLGTPDEVVWPGVTSMPDYKPSFPKWARQDFSKVVPPLDEDGRSLLSQMLHYDPNKRISAKAALAHPFFQDVTKPVPHLRL

> <PDB ID(s) of Target Chain>
1CKP,1DI8,1DM2,1E1V,1E1X,1E9H,1F5Q,1FIN,1FQ1,1FVT,1FVV,1G5S,1GIH,1GY3,1GZ8,1H00,1H01,1H07,1H08,1H0V,1H0W,1H1P,1H1Q,1H1R,1H1S,1H24,1H25,1H26,1H27,1H28,1HCK,1HCL,1JST,1JSU,1JSV,1JVP,1KE5,1KE6,1KE7,1KE8,1KE9,1OGU,1OI9,1OIQ,1OIR,1OIU,1OIY,1OKV,1OKW,1OL1,1OL2,1P2A,1P5E,1PF8,1PKD,1PW2,1PXI,1PXJ,1PXK,1PXL,1PXM,1PXN,1PXO,1PXP,1PYE,1QMZ,1R78,1URC,1URW,1V1K,1VYW,1VYZ,1W0X,1W8C,1W98,1WCC,1Y8Y,1Y91,1YKR,2A0C,2A4L,2B52,2B53,2B54,2B55,2BHE,2BHH,2BKZ,2BPM,2BTR,2BTS,2C4G,2C5N,2C5O,2C5V,2C5X,2C5Y,2C68,2C69,2C6I,2C6K,2C6L,2C6M,2C6O,2C6T,2CCH,2CCI,2CJM,2CLX,2DUV,2EXM,2FVD,2G9X,2I40,2J9M,2JGZ,2R3F,2R3G,2R3H,2R3I,2R3J,2R3K,2R3L,2R3M,2R3N,2R3O,2R3P,2R3Q,2R3R,2R64,2UUE,2UZB,2UZD,2UZE,2UZL,2UZN,2UZO,2V0D,2V22,2VTA,2VTH,2VTI,2VTJ,2VTL,2VTM,2VTN,2VTO,2VTP,2VTQ,2VTR,2VTS,2VTT,2VU3,2VV9,2W05,2W06,2W17,2W1H,2WEV,2WFY,2WHB,2WIH,2WIP,2WMA,2WMB,2WPA,2WXV,2X1N,2XMY,2XNB,3BHT,3BHU,3BHV,3DDP,3DDQ,3DOG,3EID,3EJ1,3EOC,3EZR,3EZV,3F5X,3FZ1,3IG7,3IGG,3LE6,3LFN,3LFQ,3LFS,3MY5,3NS9,3PJ8,3PXF,3PXQ,3PXR,3PXY,3PXZ,3PY0,3PY1,3QHR,3QHW,3QL8,3QQF,3QQG,3QQH,3QQJ,3QQK,3QQL,3QRT,3QRU,3QTQ,3QTR,3QTS,3QTU,3QTW,3QTX,3QTZ,3QU0,3QWJ,3QWK,3QX2,3QX4,3QXO,3QXP,3QZF,3QZG,3QZH,3QZI,3R1Q,3R1S,3R1Y,3R28,3R6X,3R71,3R73,3R7E,3R7I,3R7U,3R7V,3R7Y,3R83,3R8L,3R8M,3R8P,3R8U,3R8V,3R8Z,3R9D,3R9H,3R9N,3R9O,3RAH,3RAI,3RAK,3RAL,3RJC,3RK5,3RK7,3RK9,3RKB,3RM6,3RM7,3RMF,3RNI,3ROY,3RPO,3RPR,3RPV,3RPY,3RZB,3S00,3S0O,3S1H,3S2P,3SQQ,3SW4,3SW7,3TI1,3TIY,3TIZ,3TNW,3ULI,3UNJ,3UNK,3WBL,4ACM,4BCK,4BCM,4BCN,4BCO,4BCP,4BCQ,4BGH,4BZD,4CFM,4CFN,4CFU,4CFV,4CFW,4CFX,4D1X,4D1Z,4EK3,4EK4,4EK5,4EK6,4EK8,4EOQ,4EOR,4EOS,4ERW,4EZ3,4EZ7,4FKG,4FKI,4FKJ,4FKL,4FKO,4FKP,4FKQ,4FKR,4FKS,4FKT,4FKU,4FKV,4FKW,4FX3,4GCJ,4I3Z,4II5,4KD1,4LYN,4NJ3,4RJ3,5A14,5AND,5ANE,5ANG,5ANI,5ANJ,5ANK,5ANO,5CYI,5D1J,5FP5,5FP6,5IEV,5IEX,5IEY,5IF1,5JQ5,5JQ8,5K4J,5L2W,5LMK,5MHQ,5NEV,5OO0,5OSJ,5UQ1,5UQ2,5UQ3,6ATH,6GUB,6GUC,6GUE,6GUF,6GUH,6GUK,6GVA,6INL,6JGM,6OQI,6P3W,6Q3B,6Q3C,6Q3F,6Q48,6Q49,6Q4A,6Q4B,6Q4C,6Q4D,6Q4E,6Q4F,6Q4H,6Q4J,6Q4K,6RIJ,6SG4,7ACK,7B5L,7B5R,7B7S,7E34,7KJS,7M2F,7NVQ

> <UniProt (SwissProt) Recommended Name of Target Chain>
Cyclin-dependent kinase 2

> <UniProt (SwissProt) Entry Name of Target Chain>
CDK2_HUMAN

> <UniProt (SwissProt) Primary ID of Target Chain>
P24941

> <UniProt (SwissProt) Secondary ID(s) of Target Chain>
A8K7C6,O75100

> <UniProt (SwissProt) Alternative ID(s) of Target Chain>


> <UniProt (TrEMBL) Submitted Name of Target Chain>


> <UniProt (TrEMBL) Entry Name of Target Chain>


> <UniProt (TrEMBL) Primary ID of Target Chain>
A0A024RB77

> <UniProt (TrEMBL) Secondary ID(s) of Target Chain>


> <UniProt (TrEMBL) Alternative ID(s) of Target Chain>


$$$$
BindingDB_50276063_mol_1

Vconf v2.0 Academic SN VC001-00000579
 31 33  0  0  0  0  0  0  0  0999 V2000
    9.9360  -19.5080    0.9600 C   0  0  0  0  0  0  0  0  0  0  0
    9.9520  -20.7580    0.3110 C   0  0  0  0  0  0  0  0  0  0  0
   11.1880  -21.2910   -0.1150 C   0  0  0  0  0  0  0  0  0  0  0
   12.3780  -20.5710    0.0780 C   0  0  0  0  0  0  0  0  0  0  0
   12.3470  -19.3170    0.7100 C   0  0  0  0  0  0  0  0  0  0  0
   11.1250  -18.7790    1.1590 C   0  0  0  0  0  0  0  0  0  0  0
    8.7690  -21.4110    0.1700 N   0  0  0  0  0  0  0  0  0  0  0
    8.3620  -22.1170   -0.9120 C   0  0  0  0  0  0  0  0  0  0  0
    7.1350  -22.6880   -0.8760 N   0  0  0  0  0  0  0  0  0  0  0
    6.6450  -23.4020   -1.9170 C   0  0  0  0  0  0  0  0  0  0  0
    7.4140  -23.5680   -3.0770 C   0  0  0  0  0  0  0  0  0  0  0
    8.6870  -22.9710   -3.1120 C   0  0  0  0  0  0  0  0  0  0  0
    9.1120  -22.2680   -2.0330 N   0  0  0  0  0  0  0  0  0  0  0
    9.5380  -23.0750   -4.2230 C   0  0  0  0  0  0  0  0  0  0  0
   11.1050  -22.3300   -4.2310 S   0  0  0  0  0  0  0  0  0  0  0
   11.3030  -22.9750   -5.8230 C   0  0  0  0  0  0  0  0  0  0  0
   10.2040  -23.7000   -6.2560 C   0  0  0  0  0  0  0  0  0  0  0
    9.2240  -23.7470   -5.3460 N   0  0  0  0  0  0  0  0  0  0  0
   11.0740  -17.4720    1.8330 C   0  0  0  0  0  0  0  0  0  0  0
    9.0490  -19.1200    1.2860 H   0  0  0  0  0  0  0  0  0  0  0
   11.2270  -22.2060   -0.5630 H   0  0  0  0  0  0  0  0  0  0  0
   13.2670  -20.9600   -0.2390 H   0  0  0  0  0  0  0  0  0  0  0
   13.2160  -18.8000    0.8470 H   0  0  0  0  0  0  0  0  0  0  0
    8.1300  -21.3250    0.8930 H   0  0  0  0  0  0  0  0  0  0  0
    5.7160  -23.8190   -1.8570 H   0  0  0  0  0  0  0  0  0  0  0
    7.0520  -24.1050   -3.8670 H   0  0  0  0  0  0  0  0  0  0  0
   12.1420  -22.8370   -6.3850 H   0  0  0  0  0  0  0  0  0  0  0
   10.1480  -24.1510   -7.1700 H   0  0  0  0  0  0  0  0  0  0  0
   12.0690  -17.0310    1.9140 H   0  0  0  0  0  0  0  0  0  0  0
   10.4360  -16.7940    1.2650 H   0  0  0  0  0  0  0  0  0  0  0
   10.6630  -17.5940    2.8360 H   0  0  0  0  0  0  0  0  0  0  0
  1  2  1  0  0  0  0
  1  6  2  0  0  0  0
  1 20  1  0  0  0  0
  2  3  2  0  0  0  0
  2  7  1  0  0  0  0
  3  4  1  0  0  0  0
  3 21  1  0  0  0  0
  4  5  2  0  0  0  0
  4 22  1  0  0  0  0
  5  6  1  0  0  0  0
  5 23  1  0  0  0  0
  6 19  1  0  0  0  0
  7  8  1  0  0  0  0
  7 24  1  0  0  0  0
  8  9  1  0  0  0  0
  8 13  2  0  0  0  0
  9 10  2  0  0  0  0
 10 11  1  0  0  0  0
 10 25  1  0  0  0  0
 11 12  2  0  0  0  0
 11 26  1  0  0  0  0
 12 13  1  0  0  0  0
 12 14  1  0  0  0  0
 14 15  1  0  0  0  0
 14 18  2  0  0  0  0
 15 16  1  0  0  0  0
 16 17  2  0  0  0  0
 16 27  1  0  0  0  0
 17 18  1  0  0  0  0
 17 28  1  0  0  0  0
 19 29  1  0  0  0  0
 19 30  1  0  0  0  0
 19 31  1  0  0  0  0
M  END
> <From>
www.bindingDB.org

> <BindingDB Reactant_set_id>
50436579

> <Ligand InChI>
InChI=1S/C14H12N4S/c1-10-3-2-4-11(9-10)17-14-16-6-5-12(18-14)13-15-7-8-19-13/h2-9H,1H3,(H,16,17,18)

> <Ligand InChI Key>
NYGKSLDYPFTJBU-UHFFFAOYSA-N

> <BindingDB MonomerID>
50276063

> <BindingDB Ligand Name>
4-(thiazol-2-yl)-N-m-tolylpyrimidin-2-amine::CHEMBL471819

> <Target Name Assigned by Curator or DataSource>
Cyclin-dependent kinase 2

> <Target Source Organism According to Curator or DataSource>
Homo sapiens

> <Ki (nM)>
 2452

> <IC50 (nM)>


> <Kd (nM)>


> <EC50 (nM)>


> <kon (M-1-s-1)>


> <koff (s-1)>


> <pH>


> <Temp C>


> <Curation/DataSource>
ChEMBL

> <Article DOI>
10.1016/j.bmcl.2008.09.106

> <PMID>
18938080

> <PubChem AID>


> <Patent Number>


> <Authors>
Farmer, LJ; Bemis, G; Britt, SD; Cochran, J; Connors, M; Harrington, EM; Hoock, T; Markland, W; Nanthakumar, S; Taslimi, P; Ter Haar, E; Wang, J; Zhaveri, D; Salituro, FG

> <Institution>
Vertex Pharmaceuticals Inc

> <Link to Ligand in BindingDB>
http://www.bindingdb.org/bind/chemsearch/marvin/MolStructure.jsp?monomerid=50276063

> <Link to Ligand-Target Pair in BindingDB>
http://www.bindingdb.org/jsp/dbsearch/PrimarySearch_ki.jsp?energyterm=kJ/mole&tag=pol&polymerid=796&target=Cyclin-dependent+kinase+2&column=ki&startPg=0&Increment=50&submit=Search

> <Link to Ligand-Target Pair in BindingDB>
http://www.bindingdb.org/jsp/dbsearch/PrimarySearch_ki.jsp?energyterm=kJ/mole&tag=r21&monomerid=50276063&enzyme=Cyclin-dependent+kinase+2&column=ki&startPg=0&Increment=50&submit=Search

> <Ligand HET ID in PDB>


> <PDB ID(s) for Ligand-Target Complex>


> <PubChem CID>
20741385

> <PubChem SID>
104119387

> <ChEBI ID of Ligand>


> <ChEMBL ID of Ligand>
CHEMBL471819

> <DrugBank ID of Ligand>


> <IUPHAR_GRAC ID of Ligand>


> <KEGG ID of Ligand>


> <ZINC ID of Ligand>
ZINC40891888

> <Number of Protein Chains in Target (bigger than 1 implies a multichain complex)>
1

> <BindingDB Target Chain Sequence>
MENFQKVEKIGEGTYGVVYKARNKLTGEVVALKKIRLDTETEGVPSTAIREISLLKELNHPNIVKLLDVIHTENKLYLVFEFLHQDLKKFMDASALTGIPLPLIKSYLFQLLQGLAFCHSHRVLHRDLKPQNLLINTEGAIKLADFGLARAFGVPVRTYTHEVVTLWYRAPEILLGCKYYSTAVDIWSLGCIFAEMVTRRALFPGDSEIDQLFRIFRTLGTPDEVVWPGVTSMPDYKPSFPKWARQDFSKVVPPLDEDGRSLLSQMLHYDPNKRISAKAALAHPFFQDVTKPVPHLRL

> <PDB ID(s) of Target Chain>
1CKP,1DI8,1DM2,1E1V,1E1X,1E9H,1F5Q,1FIN,1FQ1,1FVT,1FVV,1G5S,1GIH,1GY3,1GZ8,1H00,1H01,1H07,1H08,1H0V,1H0W,1H1P,1H1Q,1H1R,1H1S,1H24,1H25,1H26,1H27,1H28,1HCK,1HCL,1JST,1JSU,1JSV,1JVP,1KE5,1KE6,1KE7,1KE8,1KE9,1OGU,1OI9,1OIQ,1OIR,1OIU,1OIY,1OKV,1OKW,1OL1,1OL2,1P2A,1P5E,1PF8,1PKD,1PW2,1PXI,1PXJ,1PXK,1PXL,1PXM,1PXN,1PXO,1PXP,1PYE,1QMZ,1R78,1URC,1URW,1V1K,1VYW,1VYZ,1W0X,1W8C,1W98,1WCC,1Y8Y,1Y91,1YKR,2A0C,2A4L,2B52,2B53,2B54,2B55,2BHE,2BHH,2BKZ,2BPM,2BTR,2BTS,2C4G,2C5N,2C5O,2C5V,2C5X,2C5Y,2C68,2C69,2C6I,2C6K,2C6L,2C6M,2C6O,2C6T,2CCH,2CCI,2CJM,2CLX,2DUV,2EXM,2FVD,2G9X,2I40,2J9M,2JGZ,2R3F,2R3G,2R3H,2R3I,2R3J,2R3K,2R3L,2R3M,2R3N,2R3O,2R3P,2R3Q,2R3R,2R64,2UUE,2UZB,2UZD,2UZE,2UZL,2UZN,2UZO,2V0D,2V22,2VTA,2VTH,2VTI,2VTJ,2VTL,2VTM,2VTN,2VTO,2VTP,2VTQ,2VTR,2VTS,2VTT,2VU3,2VV9,2W05,2W06,2W17,2W1H,2WEV,2WFY,2WHB,2WIH,2WIP,2WMA,2WMB,2WPA,2WXV,2X1N,2XMY,2XNB,3BHT,3BHU,3BHV,3DDP,3DDQ,3DOG,3EID,3EJ1,3EOC,3EZR,3EZV,3F5X,3FZ1,3IG7,3IGG,3LE6,3LFN,3LFQ,3LFS,3MY5,3NS9,3PJ8,3PXF,3PXQ,3PXR,3PXY,3PXZ,3PY0,3PY1,3QHR,3QHW,3QL8,3QQF,3QQG,3QQH,3QQJ,3QQK,3QQL,3QRT,3QRU,3QTQ,3QTR,3QTS,3QTU,3QTW,3QTX,3QTZ,3QU0,3QWJ,3QWK,3QX2,3QX4,3QXO,3QXP,3QZF,3QZG,3QZH,3QZI,3R1Q,3R1S,3R1Y,3R28,3R6X,3R71,3R73,3R7E,3R7I,3R7U,3R7V,3R7Y,3R83,3R8L,3R8M,3R8P,3R8U,3R8V,3R8Z,3R9D,3R9H,3R9N,3R9O,3RAH,3RAI,3RAK,3RAL,3RJC,3RK5,3RK7,3RK9,3RKB,3RM6,3RM7,3RMF,3RNI,3ROY,3RPO,3RPR,3RPV,3RPY,3RZB,3S00,3S0O,3S1H,3S2P,3SQQ,3SW4,3SW7,3TI1,3TIY,3TIZ,3TNW,3ULI,3UNJ,3UNK,3WBL,4ACM,4BCK,4BCM,4BCN,4BCO,4BCP,4BCQ,4BGH,4BZD,4CFM,4CFN,4CFU,4CFV,4CFW,4CFX,4D1X,4D1Z,4EK3,4EK4,4EK5,4EK6,4EK8,4EOQ,4EOR,4EOS,4ERW,4EZ3,4EZ7,4FKG,4FKI,4FKJ,4FKL,4FKO,4FKP,4FKQ,4FKR,4FKS,4FKT,4FKU,4FKV,4FKW,4FX3,4GCJ,4I3Z,4II5,4KD1,4LYN,4NJ3,4RJ3,5A14,5AND,5ANE,5ANG,5ANI,5ANJ,5ANK,5ANO,5CYI,5D1J,5FP5,5FP6,5IEV,5IEX,5IEY,5IF1,5JQ5,5JQ8,5K4J,5L2W,5LMK,5MHQ,5NEV,5OO0,5OSJ,5UQ1,5UQ2,5UQ3,6ATH,6GUB,6GUC,6GUE,6GUF,6GUH,6GUK,6GVA,6INL,6JGM,6OQI,6P3W,6Q3B,6Q3C,6Q3F,6Q48,6Q49,6Q4A,6Q4B,6Q4C,6Q4D,6Q4E,6Q4F,6Q4H,6Q4J,6Q4K,6RIJ,6SG4,7ACK,7B5L,7B5R,7B7S,7E34,7KJS,7M2F,7NVQ

> <UniProt (SwissProt) Recommended Name of Target Chain>
Cyclin-dependent kinase 2

> <UniProt (SwissProt) Entry Name of Target Chain>
CDK2_HUMAN

> <UniProt (SwissProt) Primary ID of Target Chain>
P24941

> <UniProt (SwissProt) Secondary ID(s) of Target Chain>
A8K7C6,O75100

> <UniProt (SwissProt) Alternative ID(s) of Target Chain>


> <UniProt (TrEMBL) Submitted Name of Target Chain>


> <UniProt (TrEMBL) Entry Name of Target Chain>


> <UniProt (TrEMBL) Primary ID of Target Chain>
A0A024RB77

> <UniProt (TrEMBL) Secondary ID(s) of Target Chain>


> <UniProt (TrEMBL) Alternative ID(s) of Target Chain>


$$$$
BindingDB_50275934_mol_1

Vconf v2.0 Academic SN VC001-00000579
 38 40  0  0  0  0  0  0  0  0999 V2000
    7.9960    2.6660   -0.0270 C   0  0  0  0  0  0  0  0  0  0  0
    7.9700    1.4490    0.6790 C   0  0  0  0  0  0  0  0  0  0  0
    9.1740    0.9440    1.2150 C   0  0  0  0  0  0  0  0  0  0  0
   10.3800    1.6570    1.0780 C   0  0  0  0  0  0  0  0  0  0  0
   10.3820    2.8810    0.3820 C   0  0  0  0  0  0  0  0  0  0  0
    9.1930    3.3910   -0.1760 C   0  0  0  0  0  0  0  0  0  0  0
    6.7820    0.7970    0.7720 N   0  0  0  0  0  0  0  0  0  0  0
    6.3020    0.1500    1.8610 C   0  0  0  0  0  0  0  0  0  0  0
    5.0820   -0.4300    1.7750 N   0  0  0  0  0  0  0  0  0  0  0
    4.5260   -1.0880    2.8200 C   0  0  0  0  0  0  0  0  0  0  0
    5.2150   -1.1810    4.0370 C   0  0  0  0  0  0  0  0  0  0  0
    6.4800   -0.5740    4.1230 C   0  0  0  0  0  0  0  0  0  0  0
    6.9750    0.0690    3.0370 N   0  0  0  0  0  0  0  0  0  0  0
    7.2580   -0.6090    5.2900 C   0  0  0  0  0  0  0  0  0  0  0
    6.8740   -1.2140    6.4290 N   0  0  0  0  0  0  0  0  0  0  0
    7.7960   -1.1090    7.3930 C   0  0  0  0  0  0  0  0  0  0  0
    8.9230   -0.4070    6.9900 C   0  0  0  0  0  0  0  0  0  0  0
    8.8210    0.1420    5.3530 S   0  0  0  0  0  0  0  0  0  0  0
   11.6160    1.1140    1.6640 C   0  0  0  0  0  0  0  0  0  0  0
    9.1840    4.6670   -0.9060 C   0  0  0  0  0  0  0  0  0  0  0
   10.0880   -0.1590    7.8420 C   0  0  0  0  0  0  0  0  0  0  0
    9.7050    0.5950    8.9850 O   0  0  0  0  0  0  0  0  0  0  0
    7.1330    3.0330   -0.4310 H   0  0  0  0  0  0  0  0  0  0  0
    9.1760    0.0510    1.7090 H   0  0  0  0  0  0  0  0  0  0  0
   11.2530    3.4020    0.2790 H   0  0  0  0  0  0  0  0  0  0  0
    6.1960    0.8390    0.0020 H   0  0  0  0  0  0  0  0  0  0  0
    3.6050   -1.5150    2.7210 H   0  0  0  0  0  0  0  0  0  0  0
    4.8030   -1.6760    4.8300 H   0  0  0  0  0  0  0  0  0  0  0
    7.6820   -1.5060    8.3270 H   0  0  0  0  0  0  0  0  0  0  0
   12.4640    1.7740    1.4780 H   0  0  0  0  0  0  0  0  0  0  0
   11.4890    1.0010    2.7420 H   0  0  0  0  0  0  0  0  0  0  0
   11.8300    0.1380    1.2260 H   0  0  0  0  0  0  0  0  0  0  0
   10.1810    5.1090   -0.9430 H   0  0  0  0  0  0  0  0  0  0  0
    8.8370    4.5020   -1.9270 H   0  0  0  0  0  0  0  0  0  0  0
    8.5100    5.3670   -0.4090 H   0  0  0  0  0  0  0  0  0  0  0
   10.5190   -1.1080    8.1610 H   0  0  0  0  0  0  0  0  0  0  0
   10.8340    0.4010    7.2790 H   0  0  0  0  0  0  0  0  0  0  0
   10.4400    0.8030    9.5980 H   0  0  0  0  0  0  0  0  0  0  0
  1  2  1  0  0  0  0
  1  6  2  0  0  0  0
  1 23  1  0  0  0  0
  2  3  2  0  0  0  0
  2  7  1  0  0  0  0
  3  4  1  0  0  0  0
  3 24  1  0  0  0  0
  4  5  2  0  0  0  0
  4 19  1  0  0  0  0
  5  6  1  0  0  0  0
  5 25  1  0  0  0  0
  6 20  1  0  0  0  0
  7  8  1  0  0  0  0
  7 26  1  0  0  0  0
  8  9  1  0  0  0  0
  8 13  2  0  0  0  0
  9 10  2  0  0  0  0
 10 11  1  0  0  0  0
 10 27  1  0  0  0  0
 11 12  2  0  0  0  0
 11 28  1  0  0  0  0
 12 13  1  0  0  0  0
 12 14  1  0  0  0  0
 14 15  2  0  0  0  0
 14 18  1  0  0  0  0
 15 16  1  0  0  0  0
 16 17  2  0  0  0  0
 16 29  1  0  0  0  0
 17 18  1  0  0  0  0
 17 21  1  0  0  0  0
 19 30  1  0  0  0  0
 19 31  1  0  0  0  0
 19 32  1  0  0  0  0
 20 33  1  0  0  0  0
 20 34  1  0  0  0  0
 20 35  1  0  0  0  0
 21 22  1  0  0  0  0
 21 36  1  0  0  0  0
 21 37  1  0  0  0  0
 22 38  1  0  0  0  0
M  END
> <From>
www.bindingDB.org

> <BindingDB Reactant_set_id>
50436575

> <Ligand InChI>
InChI=1S/C16H16N4OS/c1-10-5-11(2)7-12(6-10)19-16-17-4-3-14(20-16)15-18-8-13(9-21)22-15/h3-8,21H,9H2,1-2H3,(H,17,19,20)

> <Ligand InChI Key>
XZSYGIPHRZNQNN-UHFFFAOYSA-N

> <BindingDB MonomerID>
50275934

> <BindingDB Ligand Name>
(2-(2-(3,5-dimethylphenylamino)pyrimidin-4-yl)thiazol-5-yl)methanol::CHEMBL511670

> <Target Name Assigned by Curator or DataSource>
Cyclin-dependent kinase 2

> <Target Source Organism According to Curator or DataSource>
Homo sapiens

> <Ki (nM)>
>2500

> <IC50 (nM)>


> <Kd (nM)>


> <EC50 (nM)>


> <kon (M-1-s-1)>


> <koff (s-1)>


> <pH>


> <Temp C>


> <Curation/DataSource>
ChEMBL

> <Article DOI>
10.1016/j.bmcl.2008.09.106

> <PMID>
18938080

> <PubChem AID>


> <Patent Number>


> <Authors>
Farmer, LJ; Bemis, G; Britt, SD; Cochran, J; Connors, M; Harrington, EM; Hoock, T; Markland, W; Nanthakumar, S; Taslimi, P; Ter Haar, E; Wang, J; Zhaveri, D; Salituro, FG

> <Institution>
Vertex Pharmaceuticals Inc

> <Link to Ligand in BindingDB>
http://www.bindingdb.org/bind/chemsearch/marvin/MolStructure.jsp?monomerid=50275934

> <Link to Ligand-Target Pair in BindingDB>
http://www.bindingdb.org/jsp/dbsearch/PrimarySearch_ki.jsp?energyterm=kJ/mole&tag=pol&polymerid=796&target=Cyclin-dependent+kinase+2&column=ki&startPg=0&Increment=50&submit=Search

> <Link to Ligand-Target Pair in BindingDB>
http://www.bindingdb.org/jsp/dbsearch/PrimarySearch_ki.jsp?energyterm=kJ/mole&tag=r21&monomerid=50275934&enzyme=Cyclin-dependent+kinase+2&column=ki&startPg=0&Increment=50&submit=Search

> <Ligand HET ID in PDB>


> <PDB ID(s) for Ligand-Target Complex>


> <PubChem CID>
11324412

> <PubChem SID>
104119293

> <ChEBI ID of Ligand>


> <ChEMBL ID of Ligand>
CHEMBL511670

> <DrugBank ID of Ligand>


> <IUPHAR_GRAC ID of Ligand>


> <KEGG ID of Ligand>


> <ZINC ID of Ligand>
ZINC40914668

> <Number of Protein Chains in Target (bigger than 1 implies a multichain complex)>
1

> <BindingDB Target Chain Sequence>
MENFQKVEKIGEGTYGVVYKARNKLTGEVVALKKIRLDTETEGVPSTAIREISLLKELNHPNIVKLLDVIHTENKLYLVFEFLHQDLKKFMDASALTGIPLPLIKSYLFQLLQGLAFCHSHRVLHRDLKPQNLLINTEGAIKLADFGLARAFGVPVRTYTHEVVTLWYRAPEILLGCKYYSTAVDIWSLGCIFAEMVTRRALFPGDSEIDQLFRIFRTLGTPDEVVWPGVTSMPDYKPSFPKWARQDFSKVVPPLDEDGRSLLSQMLHYDPNKRISAKAALAHPFFQDVTKPVPHLRL

> <PDB ID(s) of Target Chain>
1CKP,1DI8,1DM2,1E1V,1E1X,1E9H,1F5Q,1FIN,1FQ1,1FVT,1FVV,1G5S,1GIH,1GY3,1GZ8,1H00,1H01,1H07,1H08,1H0V,1H0W,1H1P,1H1Q,1H1R,1H1S,1H24,1H25,1H26,1H27,1H28,1HCK,1HCL,1JST,1JSU,1JSV,1JVP,1KE5,1KE6,1KE7,1KE8,1KE9,1OGU,1OI9,1OIQ,1OIR,1OIU,1OIY,1OKV,1OKW,1OL1,1OL2,1P2A,1P5E,1PF8,1PKD,1PW2,1PXI,1PXJ,1PXK,1PXL,1PXM,1PXN,1PXO,1PXP,1PYE,1QMZ,1R78,1URC,1URW,1V1K,1VYW,1VYZ,1W0X,1W8C,1W98,1WCC,1Y8Y,1Y91,1YKR,2A0C,2A4L,2B52,2B53,2B54,2B55,2BHE,2BHH,2BKZ,2BPM,2BTR,2BTS,2C4G,2C5N,2C5O,2C5V,2C5X,2C5Y,2C68,2C69,2C6I,2C6K,2C6L,2C6M,2C6O,2C6T,2CCH,2CCI,2CJM,2CLX,2DUV,2EXM,2FVD,2G9X,2I40,2J9M,2JGZ,2R3F,2R3G,2R3H,2R3I,2R3J,2R3K,2R3L,2R3M,2R3N,2R3O,2R3P,2R3Q,2R3R,2R64,2UUE,2UZB,2UZD,2UZE,2UZL,2UZN,2UZO,2V0D,2V22,2VTA,2VTH,2VTI,2VTJ,2VTL,2VTM,2VTN,2VTO,2VTP,2VTQ,2VTR,2VTS,2VTT,2VU3,2VV9,2W05,2W06,2W17,2W1H,2WEV,2WFY,2WHB,2WIH,2WIP,2WMA,2WMB,2WPA,2WXV,2X1N,2XMY,2XNB,3BHT,3BHU,3BHV,3DDP,3DDQ,3DOG,3EID,3EJ1,3EOC,3EZR,3EZV,3F5X,3FZ1,3IG7,3IGG,3LE6,3LFN,3LFQ,3LFS,3MY5,3NS9,3PJ8,3PXF,3PXQ,3PXR,3PXY,3PXZ,3PY0,3PY1,3QHR,3QHW,3QL8,3QQF,3QQG,3QQH,3QQJ,3QQK,3QQL,3QRT,3QRU,3QTQ,3QTR,3QTS,3QTU,3QTW,3QTX,3QTZ,3QU0,3QWJ,3QWK,3QX2,3QX4,3QXO,3QXP,3QZF,3QZG,3QZH,3QZI,3R1Q,3R1S,3R1Y,3R28,3R6X,3R71,3R73,3R7E,3R7I,3R7U,3R7V,3R7Y,3R83,3R8L,3R8M,3R8P,3R8U,3R8V,3R8Z,3R9D,3R9H,3R9N,3R9O,3RAH,3RAI,3RAK,3RAL,3RJC,3RK5,3RK7,3RK9,3RKB,3RM6,3RM7,3RMF,3RNI,3ROY,3RPO,3RPR,3RPV,3RPY,3RZB,3S00,3S0O,3S1H,3S2P,3SQQ,3SW4,3SW7,3TI1,3TIY,3TIZ,3TNW,3ULI,3UNJ,3UNK,3WBL,4ACM,4BCK,4BCM,4BCN,4BCO,4BCP,4BCQ,4BGH,4BZD,4CFM,4CFN,4CFU,4CFV,4CFW,4CFX,4D1X,4D1Z,4EK3,4EK4,4EK5,4EK6,4EK8,4EOQ,4EOR,4EOS,4ERW,4EZ3,4EZ7,4FKG,4FKI,4FKJ,4FKL,4FKO,4FKP,4FKQ,4FKR,4FKS,4FKT,4FKU,4FKV,4FKW,4FX3,4GCJ,4I3Z,4II5,4KD1,4LYN,4NJ3,4RJ3,5A14,5AND,5ANE,5ANG,5ANI,5ANJ,5ANK,5ANO,5CYI,5D1J,5FP5,5FP6,5IEV,5IEX,5IEY,5IF1,5JQ5,5JQ8,5K4J,5L2W,5LMK,5MHQ,5NEV,5OO0,5OSJ,5UQ1,5UQ2,5UQ3,6ATH,6GUB,6GUC,6GUE,6GUF,6GUH,6GUK,6GVA,6INL,6JGM,6OQI,6P3W,6Q3B,6Q3C,6Q3F,6Q48,6Q49,6Q4A,6Q4B,6Q4C,6Q4D,6Q4E,6Q4F,6Q4H,6Q4J,6Q4K,6RIJ,6SG4,7ACK,7B5L,7B5R,7B7S,7E34,7KJS,7M2F,7NVQ

> <UniProt (SwissProt) Recommended Name of Target Chain>
Cyclin-dependent kinase 2

> <UniProt (SwissProt) Entry Name of Target Chain>
CDK2_HUMAN

> <UniProt (SwissProt) Primary ID of Target Chain>
P24941

> <UniProt (SwissProt) Secondary ID(s) of Target Chain>
A8K7C6,O75100

> <UniProt (SwissProt) Alternative ID(s) of Target Chain>


> <UniProt (TrEMBL) Submitted Name of Target Chain>


> <UniProt (TrEMBL) Entry Name of Target Chain>


> <UniProt (TrEMBL) Primary ID of Target Chain>
A0A024RB77

> <UniProt (TrEMBL) Secondary ID(s) of Target Chain>


> <UniProt (TrEMBL) Alternative ID(s) of Target Chain>


$$$$
BindingDB_50444923_mol_1

Vconf v2.0 Academic SN VC001-00000579
 57 60  0  0  0  0  0  0  0  0999 V2000
   13.1640   -9.5710    0.6300 C   0  0  0  0  0  0  0  0  0  0  0
   13.0780  -10.8460    0.0240 C   0  0  0  0  0  0  0  0  0  0  0
   13.8170  -11.9340    0.5130 C   0  0  0  0  0  0  0  0  0  0  0
   14.0190   -9.4260    1.7500 C   0  0  0  0  0  0  0  0  0  0  0
   14.7690  -10.5090    2.2660 C   0  0  0  0  0  0  0  0  0  0  0
   14.6590  -11.7680    1.6230 C   0  0  0  0  0  0  0  0  0  0  0
   15.3730  -12.8260    2.0760 N   0  0  0  0  0  0  0  0  0  0  0
   16.2170  -12.7660    3.1370 C   0  0  0  0  0  0  0  0  0  0  0
   16.3600  -11.5380    3.8100 C   0  0  0  0  0  0  0  0  0  0  0
   15.6350  -10.4040    3.3860 C   0  0  0  0  0  0  0  0  0  0  0
   12.4080   -8.4670    0.1290 C   0  0  0  0  0  0  0  0  0  0  0
   15.8070   -9.2350    4.0970 C   0  0  0  0  0  0  0  0  0  0  0
   14.8530   -8.6000    4.5190 O   0  0  0  0  0  0  0  0  0  0  0
   17.0170   -8.8020    4.4030 O   0  0  0  0  0  0  0  0  0  0  0
   16.9130  -13.9260    3.5310 C   0  0  0  0  0  0  0  0  0  0  0
   16.7340  -15.0710    2.8350 N   0  0  0  0  0  0  0  0  0  0  0
   17.6750  -13.9180    4.5260 O   0  0  0  0  0  0  0  0  0  0  0
   17.3550  -16.3110    3.1560 C   0  0  2  0  0  0  0  0  0  0  0
   18.8650  -16.2550    2.8660 C   0  0  0  0  0  0  0  0  0  0  0
   16.7220  -17.4350    2.3080 C   0  0  0  0  0  0  0  0  0  0  0
   15.2730  -17.5890    2.5530 C   0  0  0  0  0  0  0  0  0  0  0
   14.3380  -17.3030    1.5370 C   0  0  0  0  0  0  0  0  0  0  0
   12.9610  -17.4450    1.7750 C   0  0  0  0  0  0  0  0  0  0  0
   12.5050  -17.8780    3.0320 C   0  0  0  0  0  0  0  0  0  0  0
   13.4300  -18.1690    4.0500 C   0  0  0  0  0  0  0  0  0  0  0
   14.8070  -18.0240    3.8110 C   0  0  0  0  0  0  0  0  0  0  0
   11.1070   -8.6500   -0.3950 C   0  0  0  0  0  0  0  0  0  0  0
   10.3620   -7.5650   -0.8810 C   0  0  0  0  0  0  0  0  0  0  0
   10.9050   -6.2730   -0.8510 C   0  0  0  0  0  0  0  0  0  0  0
   12.2000   -6.0430   -0.3390 C   0  0  0  0  0  0  0  0  0  0  0
   12.9340   -7.1520    0.1430 C   0  0  0  0  0  0  0  0  0  0  0
   12.7440   -4.6590   -0.3220 C   0  0  0  0  0  0  0  0  0  0  0
   14.0170   -4.5600    0.1900 F   0  0  0  0  0  0  0  0  0  0  0
   12.7860   -4.1510   -1.5990 F   0  0  0  0  0  0  0  0  0  0  0
   11.9410   -3.8460    0.4420 F   0  0  0  0  0  0  0  0  0  0  0
   11.1790  -18.0140    3.2550 O   0  0  0  0  0  0  0  0  0  0  0
   12.4830  -10.9930   -0.7920 H   0  0  0  0  0  0  0  0  0  0  0
   13.7440  -12.8440    0.0570 H   0  0  0  0  0  0  0  0  0  0  0
   14.0870   -8.5140    2.2040 H   0  0  0  0  0  0  0  0  0  0  0
   16.9870  -11.4680    4.6140 H   0  0  0  0  0  0  0  0  0  0  0
   17.0160   -7.9780    4.9320 H   0  0  0  0  0  0  0  0  0  0  0
   16.1110  -15.0490    2.0920 H   0  0  0  0  0  0  0  0  0  0  0
   17.2100  -16.5340    4.2160 H   0  0  0  0  0  0  0  0  0  0  0
   19.3150  -17.2240    3.0830 H   0  0  0  0  0  0  0  0  0  0  0
   19.0320  -16.0070    1.8170 H   0  0  0  0  0  0  0  0  0  0  0
   19.3400  -15.5000    3.4930 H   0  0  0  0  0  0  0  0  0  0  0
   16.9060  -17.2140    1.2540 H   0  0  0  0  0  0  0  0  0  0  0
   17.2180  -18.3790    2.5430 H   0  0  0  0  0  0  0  0  0  0  0
   14.6590  -16.9860    0.6210 H   0  0  0  0  0  0  0  0  0  0  0
   12.2910  -17.2340    1.0350 H   0  0  0  0  0  0  0  0  0  0  0
   13.1030  -18.4850    4.9630 H   0  0  0  0  0  0  0  0  0  0  0
   15.4720  -18.2370    4.5550 H   0  0  0  0  0  0  0  0  0  0  0
   10.6830   -9.5780   -0.4160 H   0  0  0  0  0  0  0  0  0  0  0
    9.4240   -7.7160   -1.2520 H   0  0  0  0  0  0  0  0  0  0  0
   10.3530   -5.4910   -1.2050 H   0  0  0  0  0  0  0  0  0  0  0
   13.8760   -6.9940    0.5030 H   0  0  0  0  0  0  0  0  0  0  0
   10.9460  -18.3200    4.1560 H   0  0  0  0  0  0  0  0  0  0  0
  1  2  2  0  0  0  0
  1  4  1  0  0  0  0
  1 11  1  0  0  0  0
  2  3  1  0  0  0  0
  2 37  1  0  0  0  0
  3  6  2  0  0  0  0
  3 38  1  0  0  0  0
  4  5  2  0  0  0  0
  4 39  1  0  0  0  0
  5  6  1  0  0  0  0
  5 10  1  0  0  0  0
  6  7  1  0  0  0  0
  7  8  2  0  0  0  0
  8  9  1  0  0  0  0
  8 15  1  0  0  0  0
  9 10  2  0  0  0  0
  9 40  1  0  0  0  0
 10 12  1  0  0  0  0
 11 27  2  0  0  0  0
 11 31  1  0  0  0  0
 12 13  2  0  0  0  0
 12 14  1  0  0  0  0
 14 41  1  0  0  0  0
 15 16  1  0  0  0  0
 15 17  2  0  0  0  0
 16 18  1  0  0  0  0
 16 42  1  0  0  0  0
 18 19  1  1  0  0  0
 18 20  1  0  0  0  0
 18 43  1  0  0  0  0
 19 44  1  0  0  0  0
 19 45  1  0  0  0  0
 19 46  1  0  0  0  0
 20 21  1  0  0  0  0
 20 47  1  0  0  0  0
 20 48  1  0  0  0  0
 21 22  2  0  0  0  0
 21 26  1  0  0  0  0
 22 23  1  0  0  0  0
 22 49  1  0  0  0  0
 23 24  2  0  0  0  0
 23 50  1  0  0  0  0
 24 25  1  0  0  0  0
 24 36  1  0  0  0  0
 25 26  2  0  0  0  0
 25 51  1  0  0  0  0
 26 52  1  0  0  0  0
 27 28  1  0  0  0  0
 27 53  1  0  0  0  0
 28 29  2  0  0  0  0
 28 54  1  0  0  0  0
 29 30  1  0  0  0  0
 29 55  1  0  0  0  0
 30 31  2  0  0  0  0
 30 32  1  0  0  0  0
 31 56  1  0  0  0  0
 32 33  1  0  0  0  0
 32 34  1  0  0  0  0
 32 35  1  0  0  0  0
 36 57  1  0  0  0  0
M  END
> <From>
www.bindingDB.org

> <BindingDB Reactant_set_id>
50077180

> <Ligand InChI>
InChI=1S/C27H21F3N2O4/c1-15(11-16-5-8-20(33)9-6-16)31-25(34)24-14-22(26(35)36)21-13-18(7-10-23(21)32-24)17-3-2-4-19(12-17)27(28,29)30/h2-10,12-15,33H,11H2,1H3,(H,31,34)(H,35,36)/t15-/m1/s1

> <Ligand InChI Key>
PUFQAOUEGKPRGD-OAHLLOKOSA-N

> <BindingDB MonomerID>
50444923

> <BindingDB Ligand Name>
CHEMBL3099748

> <Target Name Assigned by Curator or DataSource>
Cyclin-dependent kinase 2

> <Target Source Organism According to Curator or DataSource>
Homo sapiens

> <Ki (nM)>
 2500

> <IC50 (nM)>


> <Kd (nM)>


> <EC50 (nM)>


> <kon (M-1-s-1)>


> <koff (s-1)>


> <pH>


> <Temp C>


> <Curation/DataSource>
ChEMBL

> <Article DOI>
10.1016/j.bmcl.2013.11.041

> <PMID>
24332088

> <PubChem AID>


> <Patent Number>


> <Authors>
Deng, Y; Shipps, GW; Zhao, L; Siddiqui, MA; Popovici-Muller, J; Curran, PJ; Duca, JS; Hruza, AW; Fischmann, TO; Madison, VS; Zhang, R; McNemar, CW; Mayhood, TW; Syto, R; Annis, A; Kirschmeier, P; Lees, EM; Parry, DA; Windsor, WT

> <Institution>
Merck Research Laboratories

> <Link to Ligand in BindingDB>
http://www.bindingdb.org/bind/chemsearch/marvin/MolStructure.jsp?monomerid=50444923

> <Link to Ligand-Target Pair in BindingDB>
http://www.bindingdb.org/jsp/dbsearch/PrimarySearch_ki.jsp?energyterm=kJ/mole&tag=pol&polymerid=796&target=Cyclin-dependent+kinase+2&column=ki&startPg=0&Increment=50&submit=Search

> <Link to Ligand-Target Pair in BindingDB>
http://www.bindingdb.org/jsp/dbsearch/PrimarySearch_ki.jsp?energyterm=kJ/mole&tag=r21&monomerid=50444923&enzyme=Cyclin-dependent+kinase+2&column=ki&startPg=0&Increment=50&submit=Search

> <Ligand HET ID in PDB>


> <PDB ID(s) for Ligand-Target Complex>


> <PubChem CID>
72946457

> <PubChem SID>
194942819

> <ChEBI ID of Ligand>


> <ChEMBL ID of Ligand>
CHEMBL3099748

> <DrugBank ID of Ligand>


> <IUPHAR_GRAC ID of Ligand>


> <KEGG ID of Ligand>


> <ZINC ID of Ligand>


> <Number of Protein Chains in Target (bigger than 1 implies a multichain complex)>
1

> <BindingDB Target Chain Sequence>
MENFQKVEKIGEGTYGVVYKARNKLTGEVVALKKIRLDTETEGVPSTAIREISLLKELNHPNIVKLLDVIHTENKLYLVFEFLHQDLKKFMDASALTGIPLPLIKSYLFQLLQGLAFCHSHRVLHRDLKPQNLLINTEGAIKLADFGLARAFGVPVRTYTHEVVTLWYRAPEILLGCKYYSTAVDIWSLGCIFAEMVTRRALFPGDSEIDQLFRIFRTLGTPDEVVWPGVTSMPDYKPSFPKWARQDFSKVVPPLDEDGRSLLSQMLHYDPNKRISAKAALAHPFFQDVTKPVPHLRL

> <PDB ID(s) of Target Chain>
1CKP,1DI8,1DM2,1E1V,1E1X,1E9H,1F5Q,1FIN,1FQ1,1FVT,1FVV,1G5S,1GIH,1GY3,1GZ8,1H00,1H01,1H07,1H08,1H0V,1H0W,1H1P,1H1Q,1H1R,1H1S,1H24,1H25,1H26,1H27,1H28,1HCK,1HCL,1JST,1JSU,1JSV,1JVP,1KE5,1KE6,1KE7,1KE8,1KE9,1OGU,1OI9,1OIQ,1OIR,1OIU,1OIY,1OKV,1OKW,1OL1,1OL2,1P2A,1P5E,1PF8,1PKD,1PW2,1PXI,1PXJ,1PXK,1PXL,1PXM,1PXN,1PXO,1PXP,1PYE,1QMZ,1R78,1URC,1URW,1V1K,1VYW,1VYZ,1W0X,1W8C,1W98,1WCC,1Y8Y,1Y91,1YKR,2A0C,2A4L,2B52,2B53,2B54,2B55,2BHE,2BHH,2BKZ,2BPM,2BTR,2BTS,2C4G,2C5N,2C5O,2C5V,2C5X,2C5Y,2C68,2C69,2C6I,2C6K,2C6L,2C6M,2C6O,2C6T,2CCH,2CCI,2CJM,2CLX,2DUV,2EXM,2FVD,2G9X,2I40,2J9M,2JGZ,2R3F,2R3G,2R3H,2R3I,2R3J,2R3K,2R3L,2R3M,2R3N,2R3O,2R3P,2R3Q,2R3R,2R64,2UUE,2UZB,2UZD,2UZE,2UZL,2UZN,2UZO,2V0D,2V22,2VTA,2VTH,2VTI,2VTJ,2VTL,2VTM,2VTN,2VTO,2VTP,2VTQ,2VTR,2VTS,2VTT,2VU3,2VV9,2W05,2W06,2W17,2W1H,2WEV,2WFY,2WHB,2WIH,2WIP,2WMA,2WMB,2WPA,2WXV,2X1N,2XMY,2XNB,3BHT,3BHU,3BHV,3DDP,3DDQ,3DOG,3EID,3EJ1,3EOC,3EZR,3EZV,3F5X,3FZ1,3IG7,3IGG,3LE6,3LFN,3LFQ,3LFS,3MY5,3NS9,3PJ8,3PXF,3PXQ,3PXR,3PXY,3PXZ,3PY0,3PY1,3QHR,3QHW,3QL8,3QQF,3QQG,3QQH,3QQJ,3QQK,3QQL,3QRT,3QRU,3QTQ,3QTR,3QTS,3QTU,3QTW,3QTX,3QTZ,3QU0,3QWJ,3QWK,3QX2,3QX4,3QXO,3QXP,3QZF,3QZG,3QZH,3QZI,3R1Q,3R1S,3R1Y,3R28,3R6X,3R71,3R73,3R7E,3R7I,3R7U,3R7V,3R7Y,3R83,3R8L,3R8M,3R8P,3R8U,3R8V,3R8Z,3R9D,3R9H,3R9N,3R9O,3RAH,3RAI,3RAK,3RAL,3RJC,3RK5,3RK7,3RK9,3RKB,3RM6,3RM7,3RMF,3RNI,3ROY,3RPO,3RPR,3RPV,3RPY,3RZB,3S00,3S0O,3S1H,3S2P,3SQQ,3SW4,3SW7,3TI1,3TIY,3TIZ,3TNW,3ULI,3UNJ,3UNK,3WBL,4ACM,4BCK,4BCM,4BCN,4BCO,4BCP,4BCQ,4BGH,4BZD,4CFM,4CFN,4CFU,4CFV,4CFW,4CFX,4D1X,4D1Z,4EK3,4EK4,4EK5,4EK6,4EK8,4EOQ,4EOR,4EOS,4ERW,4EZ3,4EZ7,4FKG,4FKI,4FKJ,4FKL,4FKO,4FKP,4FKQ,4FKR,4FKS,4FKT,4FKU,4FKV,4FKW,4FX3,4GCJ,4I3Z,4II5,4KD1,4LYN,4NJ3,4RJ3,5A14,5AND,5ANE,5ANG,5ANI,5ANJ,5ANK,5ANO,5CYI,5D1J,5FP5,5FP6,5IEV,5IEX,5IEY,5IF1,5JQ5,5JQ8,5K4J,5L2W,5LMK,5MHQ,5NEV,5OO0,5OSJ,5UQ1,5UQ2,5UQ3,6ATH,6GUB,6GUC,6GUE,6GUF,6GUH,6GUK,6GVA,6INL,6JGM,6OQI,6P3W,6Q3B,6Q3C,6Q3F,6Q48,6Q49,6Q4A,6Q4B,6Q4C,6Q4D,6Q4E,6Q4F,6Q4H,6Q4J,6Q4K,6RIJ,6SG4,7ACK,7B5L,7B5R,7B7S,7E34,7KJS,7M2F,7NVQ

> <UniProt (SwissProt) Recommended Name of Target Chain>
Cyclin-dependent kinase 2

> <UniProt (SwissProt) Entry Name of Target Chain>
CDK2_HUMAN

> <UniProt (SwissProt) Primary ID of Target Chain>
P24941

> <UniProt (SwissProt) Secondary ID(s) of Target Chain>
A8K7C6,O75100

> <UniProt (SwissProt) Alternative ID(s) of Target Chain>


> <UniProt (TrEMBL) Submitted Name of Target Chain>


> <UniProt (TrEMBL) Entry Name of Target Chain>


> <UniProt (TrEMBL) Primary ID of Target Chain>
A0A024RB77

> <UniProt (TrEMBL) Secondary ID(s) of Target Chain>


> <UniProt (TrEMBL) Alternative ID(s) of Target Chain>


$$$$
BindingDB_50444928_mol_1

Vconf v2.0 Academic SN VC001-00000579
 59 62  0  0  0  0  0  0  0  0999 V2000
   13.5340  -25.7510    0.4420 C   0  0  0  0  0  0  0  0  0  0  0
   13.6440  -26.9310   -0.3310 C   0  0  0  0  0  0  0  0  0  0  0
   14.1950  -28.1030    0.2080 C   0  0  0  0  0  0  0  0  0  0  0
   13.9950  -25.7910    1.7800 C   0  0  0  0  0  0  0  0  0  0  0
   14.5430  -26.9640    2.3490 C   0  0  0  0  0  0  0  0  0  0  0
   14.6440  -28.1210    1.5370 C   0  0  0  0  0  0  0  0  0  0  0
   15.1800  -29.2590    2.0390 N   0  0  0  0  0  0  0  0  0  0  0
   15.6430  -29.3760    3.3090 C   0  0  0  0  0  0  0  0  0  0  0
   15.5630  -28.2550    4.1570 C   0  0  0  0  0  0  0  0  0  0  0
   15.0100  -27.0450    3.6870 C   0  0  0  0  0  0  0  0  0  0  0
   12.9760  -24.5580   -0.1100 C   0  0  0  0  0  0  0  0  0  0  0
   14.9380  -25.9850    4.5660 C   0  0  0  0  0  0  0  0  0  0  0
   15.9080  -25.6440    5.2250 O   0  0  0  0  0  0  0  0  0  0  0
   13.8030  -25.3380    4.7630 O   0  0  0  0  0  0  0  0  0  0  0
   16.1810  -30.6060    3.7360 C   0  0  0  0  0  0  0  0  0  0  0
   16.3420  -31.6040    2.8380 N   0  0  0  0  0  0  0  0  0  0  0
   16.5030  -30.7940    4.9320 O   0  0  0  0  0  0  0  0  0  0  0
   16.8430  -32.9010    3.1560 C   0  0  2  0  0  0  0  0  0  0  0
   18.2260  -32.8450    3.5700 C   0  0  0  0  0  0  0  0  0  0  0
   16.7230  -33.8150    1.9150 C   0  0  0  0  0  0  0  0  0  0  0
   15.3290  -33.9530    1.4400 C   0  0  0  0  0  0  0  0  0  0  0
   19.1270  -32.3080    2.7470 O   0  0  0  0  0  0  0  0  0  0  0
   18.5480  -33.3040    4.6560 O   0  0  0  0  0  0  0  0  0  0  0
   20.4900  -32.2130    3.1610 C   0  0  0  0  0  0  0  0  0  0  0
   14.3680  -34.6050    2.2390 C   0  0  0  0  0  0  0  0  0  0  0
   13.0390  -34.7300    1.7960 C   0  0  0  0  0  0  0  0  0  0  0
   12.6610  -34.2020    0.5490 C   0  0  0  0  0  0  0  0  0  0  0
   13.6140  -33.5520   -0.2540 C   0  0  0  0  0  0  0  0  0  0  0
   14.9420  -33.4310    0.1890 C   0  0  0  0  0  0  0  0  0  0  0
   11.4290  -34.3150    0.1390 F   0  0  0  0  0  0  0  0  0  0  0
   12.1900  -23.6870    0.6790 C   0  0  0  0  0  0  0  0  0  0  0
   11.6420  -22.5140    0.1380 C   0  0  0  0  0  0  0  0  0  0  0
   11.8700  -22.1900   -1.2070 C   0  0  0  0  0  0  0  0  0  0  0
   12.6470  -23.0310   -2.0320 C   0  0  0  0  0  0  0  0  0  0  0
   13.1890  -24.2070   -1.4660 C   0  0  0  0  0  0  0  0  0  0  0
   12.8700  -22.6540   -3.4530 C   0  0  0  0  0  0  0  0  0  0  0
   13.6430  -23.5480   -4.1580 F   0  0  0  0  0  0  0  0  0  0  0
   11.6680  -22.5600   -4.1120 F   0  0  0  0  0  0  0  0  0  0  0
   13.5020  -21.4360   -3.5260 F   0  0  0  0  0  0  0  0  0  0  0
   13.3130  -26.9500   -1.2960 H   0  0  0  0  0  0  0  0  0  0  0
   14.2650  -28.9420   -0.3690 H   0  0  0  0  0  0  0  0  0  0  0
   13.9420  -24.9430    2.3460 H   0  0  0  0  0  0  0  0  0  0  0
   15.9020  -28.3190    5.1200 H   0  0  0  0  0  0  0  0  0  0  0
   13.8720  -24.6220    5.4270 H   0  0  0  0  0  0  0  0  0  0  0
   16.0710  -31.4290    1.9230 H   0  0  0  0  0  0  0  0  0  0  0
   16.2470  -33.3270    3.9670 H   0  0  0  0  0  0  0  0  0  0  0
   17.3500  -33.4040    1.1200 H   0  0  0  0  0  0  0  0  0  0  0
   17.1060  -34.8070    2.1630 H   0  0  0  0  0  0  0  0  0  0  0
   21.0730  -31.7510    2.3650 H   0  0  0  0  0  0  0  0  0  0  0
   20.5640  -31.5990    4.0600 H   0  0  0  0  0  0  0  0  0  0  0
   20.8880  -33.2080    3.3650 H   0  0  0  0  0  0  0  0  0  0  0
   14.6330  -34.9900    3.1460 H   0  0  0  0  0  0  0  0  0  0  0
   12.3520  -35.2020    2.3840 H   0  0  0  0  0  0  0  0  0  0  0
   13.3450  -33.1660   -1.1600 H   0  0  0  0  0  0  0  0  0  0  0
   15.6260  -32.9550   -0.4000 H   0  0  0  0  0  0  0  0  0  0  0
   11.9990  -23.9050    1.6590 H   0  0  0  0  0  0  0  0  0  0  0
   11.0750  -21.8980    0.7230 H   0  0  0  0  0  0  0  0  0  0  0
   11.4660  -21.3340   -1.5890 H   0  0  0  0  0  0  0  0  0  0  0
   13.7620  -24.8140   -2.0540 H   0  0  0  0  0  0  0  0  0  0  0
  1  2  2  0  0  0  0
  1  4  1  0  0  0  0
  1 11  1  0  0  0  0
  2  3  1  0  0  0  0
  2 40  1  0  0  0  0
  3  6  2  0  0  0  0
  3 41  1  0  0  0  0
  4  5  2  0  0  0  0
  4 42  1  0  0  0  0
  5  6  1  0  0  0  0
  5 10  1  0  0  0  0
  6  7  1  0  0  0  0
  7  8  2  0  0  0  0
  8  9  1  0  0  0  0
  8 15  1  0  0  0  0
  9 10  2  0  0  0  0
  9 43  1  0  0  0  0
 10 12  1  0  0  0  0
 11 31  2  0  0  0  0
 11 35  1  0  0  0  0
 12 13  2  0  0  0  0
 12 14  1  0  0  0  0
 14 44  1  0  0  0  0
 15 16  1  0  0  0  0
 15 17  2  0  0  0  0
 18 16  1  1  0  0  0
 16 45  1  0  0  0  0
 18 19  1  0  0  0  0
 18 20  1  0  0  0  0
 18 46  1  0  0  0  0
 19 22  1  0  0  0  0
 19 23  2  0  0  0  0
 20 21  1  0  0  0  0
 20 47  1  0  0  0  0
 20 48  1  0  0  0  0
 21 25  2  0  0  0  0
 21 29  1  0  0  0  0
 22 24  1  0  0  0  0
 24 49  1  0  0  0  0
 24 50  1  0  0  0  0
 24 51  1  0  0  0  0
 25 26  1  0  0  0  0
 25 52  1  0  0  0  0
 26 27  2  0  0  0  0
 26 53  1  0  0  0  0
 27 28  1  0  0  0  0
 27 30  1  0  0  0  0
 28 29  2  0  0  0  0
 28 54  1  0  0  0  0
 29 55  1  0  0  0  0
 31 32  1  0  0  0  0
 31 56  1  0  0  0  0
 32 33  2  0  0  0  0
 32 57  1  0  0  0  0
 33 34  1  0  0  0  0
 33 58  1  0  0  0  0
 34 35  2  0  0  0  0
 34 36  1  0  0  0  0
 35 59  1  0  0  0  0
 36 37  1  0  0  0  0
 36 38  1  0  0  0  0
 36 39  1  0  0  0  0
M  END
> <From>
www.bindingDB.org

> <BindingDB Reactant_set_id>
50077181

> <Ligand InChI>
InChI=1S/C28H20F4N2O5/c1-39-27(38)24(11-15-5-8-19(29)9-6-15)34-25(35)23-14-21(26(36)37)20-13-17(7-10-22(20)33-23)16-3-2-4-18(12-16)28(30,31)32/h2-10,12-14,24H,11H2,1H3,(H,34,35)(H,36,37)/t24-/m0/s1

> <Ligand InChI Key>
KNUNQKJHXZCDLM-DEOSSOPVSA-N

> <BindingDB MonomerID>
50444928

> <BindingDB Ligand Name>
CHEMBL3099743

> <Target Name Assigned by Curator or DataSource>
Cyclin-dependent kinase 2

> <Target Source Organism According to Curator or DataSource>
Homo sapiens

> <Ki (nM)>
 2500

> <IC50 (nM)>


> <Kd (nM)>


> <EC50 (nM)>


> <kon (M-1-s-1)>


> <koff (s-1)>


> <pH>


> <Temp C>


> <Curation/DataSource>
ChEMBL

> <Article DOI>
10.1016/j.bmcl.2013.11.041

> <PMID>
24332088

> <PubChem AID>


> <Patent Number>


> <Authors>
Deng, Y; Shipps, GW; Zhao, L; Siddiqui, MA; Popovici-Muller, J; Curran, PJ; Duca, JS; Hruza, AW; Fischmann, TO; Madison, VS; Zhang, R; McNemar, CW; Mayhood, TW; Syto, R; Annis, A; Kirschmeier, P; Lees, EM; Parry, DA; Windsor, WT

> <Institution>
Merck Research Laboratories

> <Link to Ligand in BindingDB>
http://www.bindingdb.org/bind/chemsearch/marvin/MolStructure.jsp?monomerid=50444928

> <Link to Ligand-Target Pair in BindingDB>
http://www.bindingdb.org/jsp/dbsearch/PrimarySearch_ki.jsp?energyterm=kJ/mole&tag=pol&polymerid=796&target=Cyclin-dependent+kinase+2&column=ki&startPg=0&Increment=50&submit=Search

> <Link to Ligand-Target Pair in BindingDB>
http://www.bindingdb.org/jsp/dbsearch/PrimarySearch_ki.jsp?energyterm=kJ/mole&tag=r21&monomerid=50444928&enzyme=Cyclin-dependent+kinase+2&column=ki&startPg=0&Increment=50&submit=Search

> <Ligand HET ID in PDB>


> <PDB ID(s) for Ligand-Target Complex>


> <PubChem CID>
57602232

> <PubChem SID>
194942824

> <ChEBI ID of Ligand>


> <ChEMBL ID of Ligand>
CHEMBL3099743

> <DrugBank ID of Ligand>


> <IUPHAR_GRAC ID of Ligand>


> <KEGG ID of Ligand>


> <ZINC ID of Ligand>


> <Number of Protein Chains in Target (bigger than 1 implies a multichain complex)>
1

> <BindingDB Target Chain Sequence>
MENFQKVEKIGEGTYGVVYKARNKLTGEVVALKKIRLDTETEGVPSTAIREISLLKELNHPNIVKLLDVIHTENKLYLVFEFLHQDLKKFMDASALTGIPLPLIKSYLFQLLQGLAFCHSHRVLHRDLKPQNLLINTEGAIKLADFGLARAFGVPVRTYTHEVVTLWYRAPEILLGCKYYSTAVDIWSLGCIFAEMVTRRALFPGDSEIDQLFRIFRTLGTPDEVVWPGVTSMPDYKPSFPKWARQDFSKVVPPLDEDGRSLLSQMLHYDPNKRISAKAALAHPFFQDVTKPVPHLRL

> <PDB ID(s) of Target Chain>
1CKP,1DI8,1DM2,1E1V,1E1X,1E9H,1F5Q,1FIN,1FQ1,1FVT,1FVV,1G5S,1GIH,1GY3,1GZ8,1H00,1H01,1H07,1H08,1H0V,1H0W,1H1P,1H1Q,1H1R,1H1S,1H24,1H25,1H26,1H27,1H28,1HCK,1HCL,1JST,1JSU,1JSV,1JVP,1KE5,1KE6,1KE7,1KE8,1KE9,1OGU,1OI9,1OIQ,1OIR,1OIU,1OIY,1OKV,1OKW,1OL1,1OL2,1P2A,1P5E,1PF8,1PKD,1PW2,1PXI,1PXJ,1PXK,1PXL,1PXM,1PXN,1PXO,1PXP,1PYE,1QMZ,1R78,1URC,1URW,1V1K,1VYW,1VYZ,1W0X,1W8C,1W98,1WCC,1Y8Y,1Y91,1YKR,2A0C,2A4L,2B52,2B53,2B54,2B55,2BHE,2BHH,2BKZ,2BPM,2BTR,2BTS,2C4G,2C5N,2C5O,2C5V,2C5X,2C5Y,2C68,2C69,2C6I,2C6K,2C6L,2C6M,2C6O,2C6T,2CCH,2CCI,2CJM,2CLX,2DUV,2EXM,2FVD,2G9X,2I40,2J9M,2JGZ,2R3F,2R3G,2R3H,2R3I,2R3J,2R3K,2R3L,2R3M,2R3N,2R3O,2R3P,2R3Q,2R3R,2R64,2UUE,2UZB,2UZD,2UZE,2UZL,2UZN,2UZO,2V0D,2V22,2VTA,2VTH,2VTI,2VTJ,2VTL,2VTM,2VTN,2VTO,2VTP,2VTQ,2VTR,2VTS,2VTT,2VU3,2VV9,2W05,2W06,2W17,2W1H,2WEV,2WFY,2WHB,2WIH,2WIP,2WMA,2WMB,2WPA,2WXV,2X1N,2XMY,2XNB,3BHT,3BHU,3BHV,3DDP,3DDQ,3DOG,3EID,3EJ1,3EOC,3EZR,3EZV,3F5X,3FZ1,3IG7,3IGG,3LE6,3LFN,3LFQ,3LFS,3MY5,3NS9,3PJ8,3PXF,3PXQ,3PXR,3PXY,3PXZ,3PY0,3PY1,3QHR,3QHW,3QL8,3QQF,3QQG,3QQH,3QQJ,3QQK,3QQL,3QRT,3QRU,3QTQ,3QTR,3QTS,3QTU,3QTW,3QTX,3QTZ,3QU0,3QWJ,3QWK,3QX2,3QX4,3QXO,3QXP,3QZF,3QZG,3QZH,3QZI,3R1Q,3R1S,3R1Y,3R28,3R6X,3R71,3R73,3R7E,3R7I,3R7U,3R7V,3R7Y,3R83,3R8L,3R8M,3R8P,3R8U,3R8V,3R8Z,3R9D,3R9H,3R9N,3R9O,3RAH,3RAI,3RAK,3RAL,3RJC,3RK5,3RK7,3RK9,3RKB,3RM6,3RM7,3RMF,3RNI,3ROY,3RPO,3RPR,3RPV,3RPY,3RZB,3S00,3S0O,3S1H,3S2P,3SQQ,3SW4,3SW7,3TI1,3TIY,3TIZ,3TNW,3ULI,3UNJ,3UNK,3WBL,4ACM,4BCK,4BCM,4BCN,4BCO,4BCP,4BCQ,4BGH,4BZD,4CFM,4CFN,4CFU,4CFV,4CFW,4CFX,4D1X,4D1Z,4EK3,4EK4,4EK5,4EK6,4EK8,4EOQ,4EOR,4EOS,4ERW,4EZ3,4EZ7,4FKG,4FKI,4FKJ,4FKL,4FKO,4FKP,4FKQ,4FKR,4FKS,4FKT,4FKU,4FKV,4FKW,4FX3,4GCJ,4I3Z,4II5,4KD1,4LYN,4NJ3,4RJ3,5A14,5AND,5ANE,5ANG,5ANI,5ANJ,5ANK,5ANO,5CYI,5D1J,5FP5,5FP6,5IEV,5IEX,5IEY,5IF1,5JQ5,5JQ8,5K4J,5L2W,5LMK,5MHQ,5NEV,5OO0,5OSJ,5UQ1,5UQ2,5UQ3,6ATH,6GUB,6GUC,6GUE,6GUF,6GUH,6GUK,6GVA,6INL,6JGM,6OQI,6P3W,6Q3B,6Q3C,6Q3F,6Q48,6Q49,6Q4A,6Q4B,6Q4C,6Q4D,6Q4E,6Q4F,6Q4H,6Q4J,6Q4K,6RIJ,6SG4,7ACK,7B5L,7B5R,7B7S,7E34,7KJS,7M2F,7NVQ

> <UniProt (SwissProt) Recommended Name of Target Chain>
Cyclin-dependent kinase 2

> <UniProt (SwissProt) Entry Name of Target Chain>
CDK2_HUMAN

> <UniProt (SwissProt) Primary ID of Target Chain>
P24941

> <UniProt (SwissProt) Secondary ID(s) of Target Chain>
A8K7C6,O75100

> <UniProt (SwissProt) Alternative ID(s) of Target Chain>


> <UniProt (TrEMBL) Submitted Name of Target Chain>


> <UniProt (TrEMBL) Entry Name of Target Chain>


> <UniProt (TrEMBL) Primary ID of Target Chain>
A0A024RB77

> <UniProt (TrEMBL) Secondary ID(s) of Target Chain>


> <UniProt (TrEMBL) Alternative ID(s) of Target Chain>


$$$$
BindingDB_50249284_mol_1

Vconf v2.0 Academic SN VC001-00000579
 44 46  0  0  0  0  0  0  0  0999 V2000
   11.7910  -11.3960    2.1160 C   0  0  0  0  0  0  0  0  0  0  0
   10.5870  -11.1840    1.2990 C   0  0  0  0  0  0  0  0  0  0  0
    9.8180  -10.0190    1.4810 C   0  0  0  0  0  0  0  0  0  0  0
    8.6570   -9.7950    0.7210 C   0  0  0  0  0  0  0  0  0  0  0
    7.9710   -8.6420    0.9400 N   0  0  0  0  0  0  0  0  0  0  0
    6.6240   -8.4920    0.9420 C   0  0  0  0  0  0  0  0  0  0  0
    6.1180   -7.2600    1.1890 N   0  0  0  0  0  0  0  0  0  0  0
    4.7850   -7.0250    1.2140 C   0  0  0  0  0  0  0  0  0  0  0
    3.8830   -8.0720    0.9830 C   0  0  0  0  0  0  0  0  0  0  0
    4.4130   -9.3500    0.7320 C   0  0  0  0  0  0  0  0  0  0  0
    5.7580   -9.5130    0.7240 N   0  0  0  0  0  0  0  0  0  0  0
    3.6020  -10.4700    0.4880 C   0  0  0  0  0  0  0  0  0  0  0
    2.2590  -10.4340    0.4640 N   0  0  0  0  0  0  0  0  0  0  0
    1.7130  -11.6290    0.2070 C   0  0  0  0  0  0  0  0  0  0  0
    0.2590  -11.8110    0.1580 C   0  0  0  0  0  0  0  0  0  0  0
    2.6730  -12.6220    0.0170 C   0  0  0  0  0  0  0  0  0  0  0
    2.4020  -14.0320   -0.2950 C   0  0  0  0  0  0  0  0  0  0  0
    1.8860  -14.2170   -1.7320 C   0  0  0  0  0  0  0  0  0  0  0
    1.6520  -15.5980   -1.9650 O   0  0  0  0  0  0  0  0  0  0  0
    4.2900  -12.0330    0.1910 S   0  0  0  0  0  0  0  0  0  0  0
    8.2880  -10.7450   -0.2550 C   0  0  0  0  0  0  0  0  0  0  0
    9.0370  -11.9240   -0.4590 C   0  0  0  0  0  0  0  0  0  0  0
   10.1880  -12.1290    0.3340 C   0  0  0  0  0  0  0  0  0  0  0
    8.5940  -12.9000   -1.4910 C   0  0  0  0  0  0  0  0  0  0  0
    9.4050  -14.0060   -1.6020 F   0  0  0  0  0  0  0  0  0  0  0
    7.3310  -13.3570   -1.1990 F   0  0  0  0  0  0  0  0  0  0  0
    8.5650  -12.3000   -2.7270 F   0  0  0  0  0  0  0  0  0  0  0
   12.2790  -12.3390    1.8640 H   0  0  0  0  0  0  0  0  0  0  0
   12.4970  -10.5810    1.9460 H   0  0  0  0  0  0  0  0  0  0  0
   11.5180  -11.4160    3.1720 H   0  0  0  0  0  0  0  0  0  0  0
   10.1060   -9.3320    2.1800 H   0  0  0  0  0  0  0  0  0  0  0
    8.4920   -7.8560    1.1610 H   0  0  0  0  0  0  0  0  0  0  0
    4.4380   -6.0840    1.4020 H   0  0  0  0  0  0  0  0  0  0  0
    2.8760   -7.9030    0.9990 H   0  0  0  0  0  0  0  0  0  0  0
   -0.0080  -12.8550   -0.0060 H   0  0  0  0  0  0  0  0  0  0  0
   -0.1730  -11.4840    1.1050 H   0  0  0  0  0  0  0  0  0  0  0
   -0.1520  -11.2060   -0.6500 H   0  0  0  0  0  0  0  0  0  0  0
    3.3310  -14.5940   -0.1940 H   0  0  0  0  0  0  0  0  0  0  0
    1.6760  -14.4330    0.4130 H   0  0  0  0  0  0  0  0  0  0  0
    0.9550  -13.6710   -1.8800 H   0  0  0  0  0  0  0  0  0  0  0
    2.6320  -13.8570   -2.4430 H   0  0  0  0  0  0  0  0  0  0  0
    1.3280  -15.8070   -2.8670 H   0  0  0  0  0  0  0  0  0  0  0
    7.4630  -10.5780   -0.8320 H   0  0  0  0  0  0  0  0  0  0  0
   10.7480  -12.9720    0.2070 H   0  0  0  0  0  0  0  0  0  0  0
  1  2  1  0  0  0  0
  1 28  1  0  0  0  0
  1 29  1  0  0  0  0
  1 30  1  0  0  0  0
  2  3  2  0  0  0  0
  2 23  1  0  0  0  0
  3  4  1  0  0  0  0
  3 31  1  0  0  0  0
  4  5  1  0  0  0  0
  4 21  2  0  0  0  0
  5  6  1  0  0  0  0
  5 32  1  0  0  0  0
  6  7  2  0  0  0  0
  6 11  1  0  0  0  0
  7  8  1  0  0  0  0
  8  9  2  0  0  0  0
  8 33  1  0  0  0  0
  9 10  1  0  0  0  0
  9 34  1  0  0  0  0
 10 11  2  0  0  0  0
 10 12  1  0  0  0  0
 12 13  2  0  0  0  0
 12 20  1  0  0  0  0
 13 14  1  0  0  0  0
 14 15  1  0  0  0  0
 14 16  2  0  0  0  0
 15 35  1  0  0  0  0
 15 36  1  0  0  0  0
 15 37  1  0  0  0  0
 16 17  1  0  0  0  0
 16 20  1  0  0  0  0
 17 18  1  0  0  0  0
 17 38  1  0  0  0  0
 17 39  1  0  0  0  0
 18 19  1  0  0  0  0
 18 40  1  0  0  0  0
 18 41  1  0  0  0  0
 19 42  1  0  0  0  0
 21 22  1  0  0  0  0
 21 43  1  0  0  0  0
 22 23  2  0  0  0  0
 22 24  1  0  0  0  0
 23 44  1  0  0  0  0
 24 25  1  0  0  0  0
 24 26  1  0  0  0  0
 24 27  1  0  0  0  0
M  END
> <From>
www.bindingDB.org

> <BindingDB Reactant_set_id>
50436572

> <Ligand InChI>
InChI=1S/C18H17F3N4OS/c1-10-7-12(18(19,20)21)9-13(8-10)24-17-22-5-3-14(25-17)16-23-11(2)15(27-16)4-6-26/h3,5,7-9,26H,4,6H2,1-2H3,(H,22,24,25)

> <Ligand InChI Key>
ITMOBXZLVLXOOL-UHFFFAOYSA-N

> <BindingDB MonomerID>
50249284

> <BindingDB Ligand Name>
2-(4-methyl-2-(2-(3-methyl-5-(trifluoromethyl)phenylamino)pyrimidin-4-yl)thiazol-5-yl)ethanol::CHEMBL475249

> <Target Name Assigned by Curator or DataSource>
Cyclin-dependent kinase 2

> <Target Source Organism According to Curator or DataSource>
Homo sapiens

> <Ki (nM)>
>2500

> <IC50 (nM)>


> <Kd (nM)>


> <EC50 (nM)>


> <kon (M-1-s-1)>


> <koff (s-1)>


> <pH>


> <Temp C>


> <Curation/DataSource>
ChEMBL

> <Article DOI>
10.1016/j.bmcl.2008.09.106

> <PMID>
18938080

> <PubChem AID>


> <Patent Number>


> <Authors>
Farmer, LJ; Bemis, G; Britt, SD; Cochran, J; Connors, M; Harrington, EM; Hoock, T; Markland, W; Nanthakumar, S; Taslimi, P; Ter Haar, E; Wang, J; Zhaveri, D; Salituro, FG

> <Institution>
Vertex Pharmaceuticals Inc

> <Link to Ligand in BindingDB>
http://www.bindingdb.org/bind/chemsearch/marvin/MolStructure.jsp?monomerid=50249284

> <Link to Ligand-Target Pair in BindingDB>
http://www.bindingdb.org/jsp/dbsearch/PrimarySearch_ki.jsp?energyterm=kJ/mole&tag=pol&polymerid=796&target=Cyclin-dependent+kinase+2&column=ki&startPg=0&Increment=50&submit=Search

> <Link to Ligand-Target Pair in BindingDB>
http://www.bindingdb.org/jsp/dbsearch/PrimarySearch_ki.jsp?energyterm=kJ/mole&tag=r21&monomerid=50249284&enzyme=Cyclin-dependent+kinase+2&column=ki&startPg=0&Increment=50&submit=Search

> <Ligand HET ID in PDB>


> <PDB ID(s) for Ligand-Target Complex>


> <PubChem CID>
44593469

> <PubChem SID>
104103620

> <ChEBI ID of Ligand>


> <ChEMBL ID of Ligand>
CHEMBL475249

> <DrugBank ID of Ligand>


> <IUPHAR_GRAC ID of Ligand>


> <KEGG ID of Ligand>


> <ZINC ID of Ligand>
ZINC40915237

> <Number of Protein Chains in Target (bigger than 1 implies a multichain complex)>
1

> <BindingDB Target Chain Sequence>
MENFQKVEKIGEGTYGVVYKARNKLTGEVVALKKIRLDTETEGVPSTAIREISLLKELNHPNIVKLLDVIHTENKLYLVFEFLHQDLKKFMDASALTGIPLPLIKSYLFQLLQGLAFCHSHRVLHRDLKPQNLLINTEGAIKLADFGLARAFGVPVRTYTHEVVTLWYRAPEILLGCKYYSTAVDIWSLGCIFAEMVTRRALFPGDSEIDQLFRIFRTLGTPDEVVWPGVTSMPDYKPSFPKWARQDFSKVVPPLDEDGRSLLSQMLHYDPNKRISAKAALAHPFFQDVTKPVPHLRL

> <PDB ID(s) of Target Chain>
1CKP,1DI8,1DM2,1E1V,1E1X,1E9H,1F5Q,1FIN,1FQ1,1FVT,1FVV,1G5S,1GIH,1GY3,1GZ8,1H00,1H01,1H07,1H08,1H0V,1H0W,1H1P,1H1Q,1H1R,1H1S,1H24,1H25,1H26,1H27,1H28,1HCK,1HCL,1JST,1JSU,1JSV,1JVP,1KE5,1KE6,1KE7,1KE8,1KE9,1OGU,1OI9,1OIQ,1OIR,1OIU,1OIY,1OKV,1OKW,1OL1,1OL2,1P2A,1P5E,1PF8,1PKD,1PW2,1PXI,1PXJ,1PXK,1PXL,1PXM,1PXN,1PXO,1PXP,1PYE,1QMZ,1R78,1URC,1URW,1V1K,1VYW,1VYZ,1W0X,1W8C,1W98,1WCC,1Y8Y,1Y91,1YKR,2A0C,2A4L,2B52,2B53,2B54,2B55,2BHE,2BHH,2BKZ,2BPM,2BTR,2BTS,2C4G,2C5N,2C5O,2C5V,2C5X,2C5Y,2C68,2C69,2C6I,2C6K,2C6L,2C6M,2C6O,2C6T,2CCH,2CCI,2CJM,2CLX,2DUV,2EXM,2FVD,2G9X,2I40,2J9M,2JGZ,2R3F,2R3G,2R3H,2R3I,2R3J,2R3K,2R3L,2R3M,2R3N,2R3O,2R3P,2R3Q,2R3R,2R64,2UUE,2UZB,2UZD,2UZE,2UZL,2UZN,2UZO,2V0D,2V22,2VTA,2VTH,2VTI,2VTJ,2VTL,2VTM,2VTN,2VTO,2VTP,2VTQ,2VTR,2VTS,2VTT,2VU3,2VV9,2W05,2W06,2W17,2W1H,2WEV,2WFY,2WHB,2WIH,2WIP,2WMA,2WMB,2WPA,2WXV,2X1N,2XMY,2XNB,3BHT,3BHU,3BHV,3DDP,3DDQ,3DOG,3EID,3EJ1,3EOC,3EZR,3EZV,3F5X,3FZ1,3IG7,3IGG,3LE6,3LFN,3LFQ,3LFS,3MY5,3NS9,3PJ8,3PXF,3PXQ,3PXR,3PXY,3PXZ,3PY0,3PY1,3QHR,3QHW,3QL8,3QQF,3QQG,3QQH,3QQJ,3QQK,3QQL,3QRT,3QRU,3QTQ,3QTR,3QTS,3QTU,3QTW,3QTX,3QTZ,3QU0,3QWJ,3QWK,3QX2,3QX4,3QXO,3QXP,3QZF,3QZG,3QZH,3QZI,3R1Q,3R1S,3R1Y,3R28,3R6X,3R71,3R73,3R7E,3R7I,3R7U,3R7V,3R7Y,3R83,3R8L,3R8M,3R8P,3R8U,3R8V,3R8Z,3R9D,3R9H,3R9N,3R9O,3RAH,3RAI,3RAK,3RAL,3RJC,3RK5,3RK7,3RK9,3RKB,3RM6,3RM7,3RMF,3RNI,3ROY,3RPO,3RPR,3RPV,3RPY,3RZB,3S00,3S0O,3S1H,3S2P,3SQQ,3SW4,3SW7,3TI1,3TIY,3TIZ,3TNW,3ULI,3UNJ,3UNK,3WBL,4ACM,4BCK,4BCM,4BCN,4BCO,4BCP,4BCQ,4BGH,4BZD,4CFM,4CFN,4CFU,4CFV,4CFW,4CFX,4D1X,4D1Z,4EK3,4EK4,4EK5,4EK6,4EK8,4EOQ,4EOR,4EOS,4ERW,4EZ3,4EZ7,4FKG,4FKI,4FKJ,4FKL,4FKO,4FKP,4FKQ,4FKR,4FKS,4FKT,4FKU,4FKV,4FKW,4FX3,4GCJ,4I3Z,4II5,4KD1,4LYN,4NJ3,4RJ3,5A14,5AND,5ANE,5ANG,5ANI,5ANJ,5ANK,5ANO,5CYI,5D1J,5FP5,5FP6,5IEV,5IEX,5IEY,5IF1,5JQ5,5JQ8,5K4J,5L2W,5LMK,5MHQ,5NEV,5OO0,5OSJ,5UQ1,5UQ2,5UQ3,6ATH,6GUB,6GUC,6GUE,6GUF,6GUH,6GUK,6GVA,6INL,6JGM,6OQI,6P3W,6Q3B,6Q3C,6Q3F,6Q48,6Q49,6Q4A,6Q4B,6Q4C,6Q4D,6Q4E,6Q4F,6Q4H,6Q4J,6Q4K,6RIJ,6SG4,7ACK,7B5L,7B5R,7B7S,7E34,7KJS,7M2F,7NVQ

> <UniProt (SwissProt) Recommended Name of Target Chain>
Cyclin-dependent kinase 2

> <UniProt (SwissProt) Entry Name of Target Chain>
CDK2_HUMAN

> <UniProt (SwissProt) Primary ID of Target Chain>
P24941

> <UniProt (SwissProt) Secondary ID(s) of Target Chain>
A8K7C6,O75100

> <UniProt (SwissProt) Alternative ID(s) of Target Chain>


> <UniProt (TrEMBL) Submitted Name of Target Chain>


> <UniProt (TrEMBL) Entry Name of Target Chain>


> <UniProt (TrEMBL) Primary ID of Target Chain>
A0A024RB77

> <UniProt (TrEMBL) Secondary ID(s) of Target Chain>


> <UniProt (TrEMBL) Alternative ID(s) of Target Chain>


$$$$
BindingDB_50275355_mol_1

Vconf v2.0 Academic SN VC001-00000579
 39 41  0  0  0  0  0  0  0  0999 V2000
   11.7960   -4.5460    0.2110 C   0  0  0  0  0  0  0  0  0  0  0
   11.5470   -5.9280    0.3380 C   0  0  0  0  0  0  0  0  0  0  0
   12.4610   -6.7200    1.0570 C   0  0  0  0  0  0  0  0  0  0  0
   13.6280   -6.1670    1.6280 C   0  0  0  0  0  0  0  0  0  0  0
   13.8570   -4.7820    1.4680 C   0  0  0  0  0  0  0  0  0  0  0
   12.9540   -3.9660    0.7660 C   0  0  0  0  0  0  0  0  0  0  0
   10.4420   -6.5350   -0.1670 N   0  0  0  0  0  0  0  0  0  0  0
    9.8800   -6.3030   -1.3780 C   0  0  0  0  0  0  0  0  0  0  0
    8.7820   -7.0170   -1.7230 N   0  0  0  0  0  0  0  0  0  0  0
    8.1660   -6.8500   -2.9170 C   0  0  0  0  0  0  0  0  0  0  0
    8.6620   -5.9190   -3.8400 C   0  0  0  0  0  0  0  0  0  0  0
    9.8040   -5.1830   -3.4770 C   0  0  0  0  0  0  0  0  0  0  0
   10.3700   -5.4020   -2.2650 N   0  0  0  0  0  0  0  0  0  0  0
   10.3850   -4.2230   -4.3210 C   0  0  0  0  0  0  0  0  0  0  0
    9.9160   -3.9190   -5.5450 N   0  0  0  0  0  0  0  0  0  0  0
   10.6420   -2.9700   -6.1500 C   0  0  0  0  0  0  0  0  0  0  0
   11.6980   -2.5320   -5.3620 C   0  0  0  0  0  0  0  0  0  0  0
   11.7890   -3.3290   -3.8310 S   0  0  0  0  0  0  0  0  0  0  0
   14.5690   -7.0490    2.3690 C   0  0  0  0  0  0  0  0  0  0  0
   10.3420   -2.4530   -7.4880 C   0  0  0  0  0  0  0  0  0  0  0
   15.6670   -6.3960    2.8810 F   0  0  0  0  0  0  0  0  0  0  0
   13.9260   -7.6420    3.4280 F   0  0  0  0  0  0  0  0  0  0  0
   15.0420   -8.0360    1.5380 F   0  0  0  0  0  0  0  0  0  0  0
   11.4450   -2.6680   -8.3610 O   0  0  0  0  0  0  0  0  0  0  0
   13.2600   -2.6390    0.6640 O   0  0  0  0  0  0  0  0  0  0  0
   12.4530   -1.7180   -0.0750 C   0  0  0  0  0  0  0  0  0  0  0
   11.1270   -3.9580   -0.2860 H   0  0  0  0  0  0  0  0  0  0  0
   12.2790   -7.7190    1.1630 H   0  0  0  0  0  0  0  0  0  0  0
   14.6920   -4.3540    1.8690 H   0  0  0  0  0  0  0  0  0  0  0
   10.0430   -7.2390    0.3670 H   0  0  0  0  0  0  0  0  0  0  0
    7.3410   -7.4040   -3.1450 H   0  0  0  0  0  0  0  0  0  0  0
    8.2030   -5.7880   -4.7420 H   0  0  0  0  0  0  0  0  0  0  0
   12.3580   -1.8130   -5.6580 H   0  0  0  0  0  0  0  0  0  0  0
    9.4670   -2.9640   -7.8910 H   0  0  0  0  0  0  0  0  0  0  0
   10.1330   -1.3840   -7.4280 H   0  0  0  0  0  0  0  0  0  0  0
   11.3050   -2.3470   -9.2760 H   0  0  0  0  0  0  0  0  0  0  0
   12.9110   -0.7300   -0.0250 H   0  0  0  0  0  0  0  0  0  0  0
   12.3900   -2.0240   -1.1210 H   0  0  0  0  0  0  0  0  0  0  0
   11.4510   -1.6640    0.3530 H   0  0  0  0  0  0  0  0  0  0  0
  1  2  2  0  0  0  0
  1  6  1  0  0  0  0
  1 27  1  0  0  0  0
  2  3  1  0  0  0  0
  2  7  1  0  0  0  0
  3  4  2  0  0  0  0
  3 28  1  0  0  0  0
  4  5  1  0  0  0  0
  4 19  1  0  0  0  0
  5  6  2  0  0  0  0
  5 29  1  0  0  0  0
  6 25  1  0  0  0  0
  7  8  1  0  0  0  0
  7 30  1  0  0  0  0
  8  9  1  0  0  0  0
  8 13  2  0  0  0  0
  9 10  2  0  0  0  0
 10 11  1  0  0  0  0
 10 31  1  0  0  0  0
 11 12  2  0  0  0  0
 11 32  1  0  0  0  0
 12 13  1  0  0  0  0
 12 14  1  0  0  0  0
 14 15  2  0  0  0  0
 14 18  1  0  0  0  0
 15 16  1  0  0  0  0
 16 17  2  0  0  0  0
 16 20  1  0  0  0  0
 17 18  1  0  0  0  0
 17 33  1  0  0  0  0
 19 21  1  0  0  0  0
 19 22  1  0  0  0  0
 19 23  1  0  0  0  0
 20 24  1  0  0  0  0
 20 34  1  0  0  0  0
 20 35  1  0  0  0  0
 24 36  1  0  0  0  0
 25 26  1  0  0  0  0
 26 37  1  0  0  0  0
 26 38  1  0  0  0  0
 26 39  1  0  0  0  0
M  END
> <From>
www.bindingDB.org

> <BindingDB Reactant_set_id>
50436571

> <Ligand InChI>
InChI=1S/C16H13F3N4O2S/c1-25-12-5-9(16(17,18)19)4-10(6-12)22-15-20-3-2-13(23-15)14-21-11(7-24)8-26-14/h2-6,8,24H,7H2,1H3,(H,20,22,23)

> <Ligand InChI Key>
XOXJNDPEHAKNBZ-UHFFFAOYSA-N

> <BindingDB MonomerID>
50275355

> <BindingDB Ligand Name>
(2-(2-(3-methoxy-5-(trifluoromethyl)phenylamino)pyrimidin-4-yl)thiazol-4-yl)methanol::CHEMBL486751

> <Target Name Assigned by Curator or DataSource>
Cyclin-dependent kinase 2

> <Target Source Organism According to Curator or DataSource>
Homo sapiens

> <Ki (nM)>
>2500

> <IC50 (nM)>


> <Kd (nM)>


> <EC50 (nM)>


> <kon (M-1-s-1)>


> <koff (s-1)>


> <pH>


> <Temp C>


> <Curation/DataSource>
ChEMBL

> <Article DOI>
10.1016/j.bmcl.2008.09.106

> <PMID>
18938080

> <PubChem AID>


> <Patent Number>


> <Authors>
Farmer, LJ; Bemis, G; Britt, SD; Cochran, J; Connors, M; Harrington, EM; Hoock, T; Markland, W; Nanthakumar, S; Taslimi, P; Ter Haar, E; Wang, J; Zhaveri, D; Salituro, FG

> <Institution>
Vertex Pharmaceuticals Inc

> <Link to Ligand in BindingDB>
http://www.bindingdb.org/bind/chemsearch/marvin/MolStructure.jsp?monomerid=50275355

> <Link to Ligand-Target Pair in BindingDB>
http://www.bindingdb.org/jsp/dbsearch/PrimarySearch_ki.jsp?energyterm=kJ/mole&tag=pol&polymerid=796&target=Cyclin-dependent+kinase+2&column=ki&startPg=0&Increment=50&submit=Search

> <Link to Ligand-Target Pair in BindingDB>
http://www.bindingdb.org/jsp/dbsearch/PrimarySearch_ki.jsp?energyterm=kJ/mole&tag=r21&monomerid=50275355&enzyme=Cyclin-dependent+kinase+2&column=ki&startPg=0&Increment=50&submit=Search

> <Ligand HET ID in PDB>


> <PDB ID(s) for Ligand-Target Complex>


> <PubChem CID>
44589514

> <PubChem SID>
104118856

> <ChEBI ID of Ligand>


> <ChEMBL ID of Ligand>
CHEMBL486751

> <DrugBank ID of Ligand>


> <IUPHAR_GRAC ID of Ligand>


> <KEGG ID of Ligand>


> <ZINC ID of Ligand>
ZINC06716292

> <Number of Protein Chains in Target (bigger than 1 implies a multichain complex)>
1

> <BindingDB Target Chain Sequence>
MENFQKVEKIGEGTYGVVYKARNKLTGEVVALKKIRLDTETEGVPSTAIREISLLKELNHPNIVKLLDVIHTENKLYLVFEFLHQDLKKFMDASALTGIPLPLIKSYLFQLLQGLAFCHSHRVLHRDLKPQNLLINTEGAIKLADFGLARAFGVPVRTYTHEVVTLWYRAPEILLGCKYYSTAVDIWSLGCIFAEMVTRRALFPGDSEIDQLFRIFRTLGTPDEVVWPGVTSMPDYKPSFPKWARQDFSKVVPPLDEDGRSLLSQMLHYDPNKRISAKAALAHPFFQDVTKPVPHLRL

> <PDB ID(s) of Target Chain>
1CKP,1DI8,1DM2,1E1V,1E1X,1E9H,1F5Q,1FIN,1FQ1,1FVT,1FVV,1G5S,1GIH,1GY3,1GZ8,1H00,1H01,1H07,1H08,1H0V,1H0W,1H1P,1H1Q,1H1R,1H1S,1H24,1H25,1H26,1H27,1H28,1HCK,1HCL,1JST,1JSU,1JSV,1JVP,1KE5,1KE6,1KE7,1KE8,1KE9,1OGU,1OI9,1OIQ,1OIR,1OIU,1OIY,1OKV,1OKW,1OL1,1OL2,1P2A,1P5E,1PF8,1PKD,1PW2,1PXI,1PXJ,1PXK,1PXL,1PXM,1PXN,1PXO,1PXP,1PYE,1QMZ,1R78,1URC,1URW,1V1K,1VYW,1VYZ,1W0X,1W8C,1W98,1WCC,1Y8Y,1Y91,1YKR,2A0C,2A4L,2B52,2B53,2B54,2B55,2BHE,2BHH,2BKZ,2BPM,2BTR,2BTS,2C4G,2C5N,2C5O,2C5V,2C5X,2C5Y,2C68,2C69,2C6I,2C6K,2C6L,2C6M,2C6O,2C6T,2CCH,2CCI,2CJM,2CLX,2DUV,2EXM,2FVD,2G9X,2I40,2J9M,2JGZ,2R3F,2R3G,2R3H,2R3I,2R3J,2R3K,2R3L,2R3M,2R3N,2R3O,2R3P,2R3Q,2R3R,2R64,2UUE,2UZB,2UZD,2UZE,2UZL,2UZN,2UZO,2V0D,2V22,2VTA,2VTH,2VTI,2VTJ,2VTL,2VTM,2VTN,2VTO,2VTP,2VTQ,2VTR,2VTS,2VTT,2VU3,2VV9,2W05,2W06,2W17,2W1H,2WEV,2WFY,2WHB,2WIH,2WIP,2WMA,2WMB,2WPA,2WXV,2X1N,2XMY,2XNB,3BHT,3BHU,3BHV,3DDP,3DDQ,3DOG,3EID,3EJ1,3EOC,3EZR,3EZV,3F5X,3FZ1,3IG7,3IGG,3LE6,3LFN,3LFQ,3LFS,3MY5,3NS9,3PJ8,3PXF,3PXQ,3PXR,3PXY,3PXZ,3PY0,3PY1,3QHR,3QHW,3QL8,3QQF,3QQG,3QQH,3QQJ,3QQK,3QQL,3QRT,3QRU,3QTQ,3QTR,3QTS,3QTU,3QTW,3QTX,3QTZ,3QU0,3QWJ,3QWK,3QX2,3QX4,3QXO,3QXP,3QZF,3QZG,3QZH,3QZI,3R1Q,3R1S,3R1Y,3R28,3R6X,3R71,3R73,3R7E,3R7I,3R7U,3R7V,3R7Y,3R83,3R8L,3R8M,3R8P,3R8U,3R8V,3R8Z,3R9D,3R9H,3R9N,3R9O,3RAH,3RAI,3RAK,3RAL,3RJC,3RK5,3RK7,3RK9,3RKB,3RM6,3RM7,3RMF,3RNI,3ROY,3RPO,3RPR,3RPV,3RPY,3RZB,3S00,3S0O,3S1H,3S2P,3SQQ,3SW4,3SW7,3TI1,3TIY,3TIZ,3TNW,3ULI,3UNJ,3UNK,3WBL,4ACM,4BCK,4BCM,4BCN,4BCO,4BCP,4BCQ,4BGH,4BZD,4CFM,4CFN,4CFU,4CFV,4CFW,4CFX,4D1X,4D1Z,4EK3,4EK4,4EK5,4EK6,4EK8,4EOQ,4EOR,4EOS,4ERW,4EZ3,4EZ7,4FKG,4FKI,4FKJ,4FKL,4FKO,4FKP,4FKQ,4FKR,4FKS,4FKT,4FKU,4FKV,4FKW,4FX3,4GCJ,4I3Z,4II5,4KD1,4LYN,4NJ3,4RJ3,5A14,5AND,5ANE,5ANG,5ANI,5ANJ,5ANK,5ANO,5CYI,5D1J,5FP5,5FP6,5IEV,5IEX,5IEY,5IF1,5JQ5,5JQ8,5K4J,5L2W,5LMK,5MHQ,5NEV,5OO0,5OSJ,5UQ1,5UQ2,5UQ3,6ATH,6GUB,6GUC,6GUE,6GUF,6GUH,6GUK,6GVA,6INL,6JGM,6OQI,6P3W,6Q3B,6Q3C,6Q3F,6Q48,6Q49,6Q4A,6Q4B,6Q4C,6Q4D,6Q4E,6Q4F,6Q4H,6Q4J,6Q4K,6RIJ,6SG4,7ACK,7B5L,7B5R,7B7S,7E34,7KJS,7M2F,7NVQ

> <UniProt (SwissProt) Recommended Name of Target Chain>
Cyclin-dependent kinase 2

> <UniProt (SwissProt) Entry Name of Target Chain>
CDK2_HUMAN

> <UniProt (SwissProt) Primary ID of Target Chain>
P24941

> <UniProt (SwissProt) Secondary ID(s) of Target Chain>
A8K7C6,O75100

> <UniProt (SwissProt) Alternative ID(s) of Target Chain>


> <UniProt (TrEMBL) Submitted Name of Target Chain>


> <UniProt (TrEMBL) Entry Name of Target Chain>


> <UniProt (TrEMBL) Primary ID of Target Chain>
A0A024RB77

> <UniProt (TrEMBL) Secondary ID(s) of Target Chain>


> <UniProt (TrEMBL) Alternative ID(s) of Target Chain>


$$$$
BindingDB_50275357_mol_1

Vconf v2.0 Academic SN VC001-00000579
 38 40  0  0  0  0  0  0  0  0999 V2000
    5.5140  -12.6160    0.4290 C   0  0  0  0  0  0  0  0  0  0  0
    5.5710  -13.9270    0.9320 C   0  0  0  0  0  0  0  0  0  0  0
    6.8150  -14.4400    1.3560 C   0  0  0  0  0  0  0  0  0  0  0
    7.9880  -13.6570    1.3150 C   0  0  0  0  0  0  0  0  0  0  0
    7.8930  -12.3370    0.8180 C   0  0  0  0  0  0  0  0  0  0  0
    6.6640  -11.8110    0.3720 C   0  0  0  0  0  0  0  0  0  0  0
    4.4220  -14.6510    0.9460 N   0  0  0  0  0  0  0  0  0  0  0
    4.0030  -15.4730    1.9380 C   0  0  0  0  0  0  0  0  0  0  0
    2.8130  -16.1000    1.7900 N   0  0  0  0  0  0  0  0  0  0  0
    2.3170  -16.9290    2.7390 C   0  0  0  0  0  0  0  0  0  0  0
    3.0390  -17.1580    3.9180 C   0  0  0  0  0  0  0  0  0  0  0
    4.2740  -16.5010    4.0680 C   0  0  0  0  0  0  0  0  0  0  0
    4.7090  -15.6850    3.0770 N   0  0  0  0  0  0  0  0  0  0  0
    5.0800  -16.6580    5.2060 C   0  0  0  0  0  0  0  0  0  0  0
    4.7540  -17.4330    6.2570 N   0  0  0  0  0  0  0  0  0  0  0
    5.6930  -17.4130    7.2110 C   0  0  0  0  0  0  0  0  0  0  0
    6.7730  -16.6030    6.8890 C   0  0  0  0  0  0  0  0  0  0  0
    6.6040  -15.8400    5.3470 S   0  0  0  0  0  0  0  0  0  0  0
    9.2720  -14.2400    1.7880 C   0  0  0  0  0  0  0  0  0  0  0
   10.3440  -13.3820    1.7070 F   0  0  0  0  0  0  0  0  0  0  0
    9.1630  -14.6200    3.1050 F   0  0  0  0  0  0  0  0  0  0  0
    9.5890  -15.3490    1.0410 F   0  0  0  0  0  0  0  0  0  0  0
    6.5110  -10.5470   -0.1240 O   0  0  0  0  0  0  0  0  0  0  0
    7.6040   -9.6360   -0.2630 C   0  0  0  0  0  0  0  0  0  0  0
    7.9400  -16.4070    7.7510 C   0  0  0  0  0  0  0  0  0  0  0
    4.6230  -12.2360    0.1060 H   0  0  0  0  0  0  0  0  0  0  0
    6.8710  -15.3990    1.7000 H   0  0  0  0  0  0  0  0  0  0  0
    8.7280  -11.7540    0.7780 H   0  0  0  0  0  0  0  0  0  0  0
    3.8160  -14.5290    0.2000 H   0  0  0  0  0  0  0  0  0  0  0
    1.4170  -17.3860    2.5950 H   0  0  0  0  0  0  0  0  0  0  0
    2.6730  -17.7830    4.6380 H   0  0  0  0  0  0  0  0  0  0  0
    5.6210  -17.9400    8.0810 H   0  0  0  0  0  0  0  0  0  0  0
    7.2310   -8.7010   -0.6830 H   0  0  0  0  0  0  0  0  0  0  0
    8.0520   -9.4300    0.7100 H   0  0  0  0  0  0  0  0  0  0  0
    8.3570  -10.0490   -0.9350 H   0  0  0  0  0  0  0  0  0  0  0
    8.6390  -15.7270    7.2650 H   0  0  0  0  0  0  0  0  0  0  0
    7.6280  -15.9800    8.7040 H   0  0  0  0  0  0  0  0  0  0  0
    8.4340  -17.3640    7.9260 H   0  0  0  0  0  0  0  0  0  0  0
  1  2  1  0  0  0  0
  1  6  2  0  0  0  0
  1 26  1  0  0  0  0
  2  3  2  0  0  0  0
  2  7  1  0  0  0  0
  3  4  1  0  0  0  0
  3 27  1  0  0  0  0
  4  5  2  0  0  0  0
  4 19  1  0  0  0  0
  5  6  1  0  0  0  0
  5 28  1  0  0  0  0
  6 23  1  0  0  0  0
  7  8  1  0  0  0  0
  7 29  1  0  0  0  0
  8  9  1  0  0  0  0
  8 13  2  0  0  0  0
  9 10  2  0  0  0  0
 10 11  1  0  0  0  0
 10 30  1  0  0  0  0
 11 12  2  0  0  0  0
 11 31  1  0  0  0  0
 12 13  1  0  0  0  0
 12 14  1  0  0  0  0
 14 15  2  0  0  0  0
 14 18  1  0  0  0  0
 15 16  1  0  0  0  0
 16 17  2  0  0  0  0
 16 32  1  0  0  0  0
 17 18  1  0  0  0  0
 17 25  1  0  0  0  0
 19 20  1  0  0  0  0
 19 21  1  0  0  0  0
 19 22  1  0  0  0  0
 23 24  1  0  0  0  0
 24 33  1  0  0  0  0
 24 34  1  0  0  0  0
 24 35  1  0  0  0  0
 25 36  1  0  0  0  0
 25 37  1  0  0  0  0
 25 38  1  0  0  0  0
M  END
> <From>
www.bindingDB.org

> <BindingDB Reactant_set_id>
50436569

> <Ligand InChI>
InChI=1S/C16H13F3N4OS/c1-9-8-21-14(25-9)13-3-4-20-15(23-13)22-11-5-10(16(17,18)19)6-12(7-11)24-2/h3-8H,1-2H3,(H,20,22,23)

> <Ligand InChI Key>
ZCPTVEVIYXDFQI-UHFFFAOYSA-N

> <BindingDB MonomerID>
50275357

> <BindingDB Ligand Name>
CHEMBL451450::N-(3-methoxy-5-(trifluoromethyl)phenyl)-4-(5-methylthiazol-2-yl)pyrimidin-2-amine

> <Target Name Assigned by Curator or DataSource>
Cyclin-dependent kinase 2

> <Target Source Organism According to Curator or DataSource>
Homo sapiens

> <Ki (nM)>
>2500

> <IC50 (nM)>


> <Kd (nM)>


> <EC50 (nM)>


> <kon (M-1-s-1)>


> <koff (s-1)>


> <pH>


> <Temp C>


> <Curation/DataSource>
ChEMBL

> <Article DOI>
10.1016/j.bmcl.2008.09.106

> <PMID>
18938080

> <PubChem AID>


> <Patent Number>


> <Authors>
Farmer, LJ; Bemis, G; Britt, SD; Cochran, J; Connors, M; Harrington, EM; Hoock, T; Markland, W; Nanthakumar, S; Taslimi, P; Ter Haar, E; Wang, J; Zhaveri, D; Salituro, FG

> <Institution>
Vertex Pharmaceuticals Inc

> <Link to Ligand in BindingDB>
http://www.bindingdb.org/bind/chemsearch/marvin/MolStructure.jsp?monomerid=50275357

> <Link to Ligand-Target Pair in BindingDB>
http://www.bindingdb.org/jsp/dbsearch/PrimarySearch_ki.jsp?energyterm=kJ/mole&tag=pol&polymerid=796&target=Cyclin-dependent+kinase+2&column=ki&startPg=0&Increment=50&submit=Search

> <Link to Ligand-Target Pair in BindingDB>
http://www.bindingdb.org/jsp/dbsearch/PrimarySearch_ki.jsp?energyterm=kJ/mole&tag=r21&monomerid=50275357&enzyme=Cyclin-dependent+kinase+2&column=ki&startPg=0&Increment=50&submit=Search

> <Ligand HET ID in PDB>


> <PDB ID(s) for Ligand-Target Complex>


> <PubChem CID>
44589516

> <PubChem SID>
104118858

> <ChEBI ID of Ligand>


> <ChEMBL ID of Ligand>
CHEMBL451450

> <DrugBank ID of Ligand>


> <IUPHAR_GRAC ID of Ligand>


> <KEGG ID of Ligand>


> <ZINC ID of Ligand>
ZINC40379232

> <Number of Protein Chains in Target (bigger than 1 implies a multichain complex)>
1

> <BindingDB Target Chain Sequence>
MENFQKVEKIGEGTYGVVYKARNKLTGEVVALKKIRLDTETEGVPSTAIREISLLKELNHPNIVKLLDVIHTENKLYLVFEFLHQDLKKFMDASALTGIPLPLIKSYLFQLLQGLAFCHSHRVLHRDLKPQNLLINTEGAIKLADFGLARAFGVPVRTYTHEVVTLWYRAPEILLGCKYYSTAVDIWSLGCIFAEMVTRRALFPGDSEIDQLFRIFRTLGTPDEVVWPGVTSMPDYKPSFPKWARQDFSKVVPPLDEDGRSLLSQMLHYDPNKRISAKAALAHPFFQDVTKPVPHLRL

> <PDB ID(s) of Target Chain>
1CKP,1DI8,1DM2,1E1V,1E1X,1E9H,1F5Q,1FIN,1FQ1,1FVT,1FVV,1G5S,1GIH,1GY3,1GZ8,1H00,1H01,1H07,1H08,1H0V,1H0W,1H1P,1H1Q,1H1R,1H1S,1H24,1H25,1H26,1H27,1H28,1HCK,1HCL,1JST,1JSU,1JSV,1JVP,1KE5,1KE6,1KE7,1KE8,1KE9,1OGU,1OI9,1OIQ,1OIR,1OIU,1OIY,1OKV,1OKW,1OL1,1OL2,1P2A,1P5E,1PF8,1PKD,1PW2,1PXI,1PXJ,1PXK,1PXL,1PXM,1PXN,1PXO,1PXP,1PYE,1QMZ,1R78,1URC,1URW,1V1K,1VYW,1VYZ,1W0X,1W8C,1W98,1WCC,1Y8Y,1Y91,1YKR,2A0C,2A4L,2B52,2B53,2B54,2B55,2BHE,2BHH,2BKZ,2BPM,2BTR,2BTS,2C4G,2C5N,2C5O,2C5V,2C5X,2C5Y,2C68,2C69,2C6I,2C6K,2C6L,2C6M,2C6O,2C6T,2CCH,2CCI,2CJM,2CLX,2DUV,2EXM,2FVD,2G9X,2I40,2J9M,2JGZ,2R3F,2R3G,2R3H,2R3I,2R3J,2R3K,2R3L,2R3M,2R3N,2R3O,2R3P,2R3Q,2R3R,2R64,2UUE,2UZB,2UZD,2UZE,2UZL,2UZN,2UZO,2V0D,2V22,2VTA,2VTH,2VTI,2VTJ,2VTL,2VTM,2VTN,2VTO,2VTP,2VTQ,2VTR,2VTS,2VTT,2VU3,2VV9,2W05,2W06,2W17,2W1H,2WEV,2WFY,2WHB,2WIH,2WIP,2WMA,2WMB,2WPA,2WXV,2X1N,2XMY,2XNB,3BHT,3BHU,3BHV,3DDP,3DDQ,3DOG,3EID,3EJ1,3EOC,3EZR,3EZV,3F5X,3FZ1,3IG7,3IGG,3LE6,3LFN,3LFQ,3LFS,3MY5,3NS9,3PJ8,3PXF,3PXQ,3PXR,3PXY,3PXZ,3PY0,3PY1,3QHR,3QHW,3QL8,3QQF,3QQG,3QQH,3QQJ,3QQK,3QQL,3QRT,3QRU,3QTQ,3QTR,3QTS,3QTU,3QTW,3QTX,3QTZ,3QU0,3QWJ,3QWK,3QX2,3QX4,3QXO,3QXP,3QZF,3QZG,3QZH,3QZI,3R1Q,3R1S,3R1Y,3R28,3R6X,3R71,3R73,3R7E,3R7I,3R7U,3R7V,3R7Y,3R83,3R8L,3R8M,3R8P,3R8U,3R8V,3R8Z,3R9D,3R9H,3R9N,3R9O,3RAH,3RAI,3RAK,3RAL,3RJC,3RK5,3RK7,3RK9,3RKB,3RM6,3RM7,3RMF,3RNI,3ROY,3RPO,3RPR,3RPV,3RPY,3RZB,3S00,3S0O,3S1H,3S2P,3SQQ,3SW4,3SW7,3TI1,3TIY,3TIZ,3TNW,3ULI,3UNJ,3UNK,3WBL,4ACM,4BCK,4BCM,4BCN,4BCO,4BCP,4BCQ,4BGH,4BZD,4CFM,4CFN,4CFU,4CFV,4CFW,4CFX,4D1X,4D1Z,4EK3,4EK4,4EK5,4EK6,4EK8,4EOQ,4EOR,4EOS,4ERW,4EZ3,4EZ7,4FKG,4FKI,4FKJ,4FKL,4FKO,4FKP,4FKQ,4FKR,4FKS,4FKT,4FKU,4FKV,4FKW,4FX3,4GCJ,4I3Z,4II5,4KD1,4LYN,4NJ3,4RJ3,5A14,5AND,5ANE,5ANG,5ANI,5ANJ,5ANK,5ANO,5CYI,5D1J,5FP5,5FP6,5IEV,5IEX,5IEY,5IF1,5JQ5,5JQ8,5K4J,5L2W,5LMK,5MHQ,5NEV,5OO0,5OSJ,5UQ1,5UQ2,5UQ3,6ATH,6GUB,6GUC,6GUE,6GUF,6GUH,6GUK,6GVA,6INL,6JGM,6OQI,6P3W,6Q3B,6Q3C,6Q3F,6Q48,6Q49,6Q4A,6Q4B,6Q4C,6Q4D,6Q4E,6Q4F,6Q4H,6Q4J,6Q4K,6RIJ,6SG4,7ACK,7B5L,7B5R,7B7S,7E34,7KJS,7M2F,7NVQ

> <UniProt (SwissProt) Recommended Name of Target Chain>
Cyclin-dependent kinase 2

> <UniProt (SwissProt) Entry Name of Target Chain>
CDK2_HUMAN

> <UniProt (SwissProt) Primary ID of Target Chain>
P24941

> <UniProt (SwissProt) Secondary ID(s) of Target Chain>
A8K7C6,O75100

> <UniProt (SwissProt) Alternative ID(s) of Target Chain>


> <UniProt (TrEMBL) Submitted Name of Target Chain>


> <UniProt (TrEMBL) Entry Name of Target Chain>


> <UniProt (TrEMBL) Primary ID of Target Chain>
A0A024RB77

> <UniProt (TrEMBL) Secondary ID(s) of Target Chain>


> <UniProt (TrEMBL) Alternative ID(s) of Target Chain>


$$$$
BindingDB_50444936_mol_1

Vconf v2.0 Academic SN VC001-00000579
 60 63  0  0  0  0  0  0  0  0999 V2000
    5.0420   -4.3520    1.6490 C   0  0  0  0  0  0  0  0  0  0  0
    4.6900   -5.1800    0.5590 C   0  0  0  0  0  0  0  0  0  0  0
    5.6540   -5.6880   -0.3200 C   0  0  0  0  0  0  0  0  0  0  0
    6.4190   -4.0530    1.8050 C   0  0  0  0  0  0  0  0  0  0  0
    7.4300   -4.5520    0.9440 C   0  0  0  0  0  0  0  0  0  0  0
    7.0070   -5.3800   -0.1290 C   0  0  0  0  0  0  0  0  0  0  0
    7.9050   -5.8960   -0.9980 N   0  0  0  0  0  0  0  0  0  0  0
    9.2370   -5.6710   -0.9180 C   0  0  0  0  0  0  0  0  0  0  0
    9.7130   -4.8560    0.1250 C   0  0  0  0  0  0  0  0  0  0  0
    8.8280   -4.2820    1.0700 C   0  0  0  0  0  0  0  0  0  0  0
    4.0840   -3.8530    2.5220 N   0  0  0  0  0  0  0  0  0  0  0
    9.4260   -3.4780    2.0840 C   0  0  0  0  0  0  0  0  0  0  0
    8.7910   -2.9070    2.9970 O   0  0  0  0  0  0  0  0  0  0  0
   10.7630   -3.2750    2.1270 O   0  0  0  0  0  0  0  0  0  0  0
   10.0940   -6.2630   -1.8670 C   0  0  0  0  0  0  0  0  0  0  0
    9.5670   -7.0400   -2.8410 N   0  0  0  0  0  0  0  0  0  0  0
   11.3340   -6.0930   -1.8110 O   0  0  0  0  0  0  0  0  0  0  0
   10.3290   -7.7280   -3.8320 C   0  0  2  0  0  0  0  0  0  0  0
    9.8880   -7.3020   -5.1360 C   0  0  0  0  0  0  0  0  0  0  0
   10.1250   -9.2530   -3.6780 C   0  0  0  0  0  0  0  0  0  0  0
   10.5690   -9.7530   -2.3600 C   0  0  0  0  0  0  0  0  0  0  0
    8.6080   -7.4620   -5.4730 O   0  0  0  0  0  0  0  0  0  0  0
   10.6920   -6.8020   -5.9100 O   0  0  0  0  0  0  0  0  0  0  0
    8.1540   -7.0150   -6.7510 C   0  0  0  0  0  0  0  0  0  0  0
   11.9300   -9.6890   -1.9970 C   0  0  0  0  0  0  0  0  0  0  0
   12.3540  -10.1470   -0.7370 C   0  0  0  0  0  0  0  0  0  0  0
   11.4200  -10.6750    0.1700 C   0  0  0  0  0  0  0  0  0  0  0
   10.0620  -10.7460   -0.1850 C   0  0  0  0  0  0  0  0  0  0  0
    9.6390  -10.2880   -1.4440 C   0  0  0  0  0  0  0  0  0  0  0
   11.8330  -11.1120    1.3800 O   0  0  0  0  0  0  0  0  0  0  0
    2.6720   -3.8290    2.2430 C   0  0  0  0  0  0  0  0  0  0  0
    2.1660   -2.3770    2.2980 C   0  0  0  0  0  0  0  0  0  0  0
    2.5360   -1.7720    3.5350 O   0  0  0  0  0  0  0  0  0  0  0
    3.9260   -1.8250    3.8480 C   0  0  0  0  0  0  0  0  0  0  0
    4.3830   -3.2900    3.8130 C   0  0  0  0  0  0  0  0  0  0  0
    3.7240   -5.4570    0.4020 H   0  0  0  0  0  0  0  0  0  0  0
    5.3680   -6.2900   -1.0930 H   0  0  0  0  0  0  0  0  0  0  0
    6.6830   -3.4260    2.5520 H   0  0  0  0  0  0  0  0  0  0  0
   10.7190   -4.6840    0.1910 H   0  0  0  0  0  0  0  0  0  0  0
   11.0500   -2.7060    2.8710 H   0  0  0  0  0  0  0  0  0  0  0
    8.6030   -7.1470   -2.8550 H   0  0  0  0  0  0  0  0  0  0  0
   11.3950   -7.5060   -3.7380 H   0  0  0  0  0  0  0  0  0  0  0
    9.0670   -9.4800   -3.8280 H   0  0  0  0  0  0  0  0  0  0  0
   10.6910   -9.7690   -4.4560 H   0  0  0  0  0  0  0  0  0  0  0
    7.0900   -7.2310   -6.8470 H   0  0  0  0  0  0  0  0  0  0  0
    8.3100   -5.9400   -6.8480 H   0  0  0  0  0  0  0  0  0  0  0
    8.6960   -7.5340   -7.5440 H   0  0  0  0  0  0  0  0  0  0  0
   12.6150   -9.3040   -2.6480 H   0  0  0  0  0  0  0  0  0  0  0
   13.3400  -10.0930   -0.4820 H   0  0  0  0  0  0  0  0  0  0  0
    9.3810  -11.1280    0.4720 H   0  0  0  0  0  0  0  0  0  0  0
    8.6500  -10.3390   -1.6910 H   0  0  0  0  0  0  0  0  0  0  0
   11.1210  -11.4640    1.9530 H   0  0  0  0  0  0  0  0  0  0  0
    2.1470   -4.4150    2.9990 H   0  0  0  0  0  0  0  0  0  0  0
    2.4010   -4.2170    1.2650 H   0  0  0  0  0  0  0  0  0  0  0
    2.6030   -1.8120    1.4730 H   0  0  0  0  0  0  0  0  0  0  0
    1.0810   -2.3660    2.2010 H   0  0  0  0  0  0  0  0  0  0  0
    4.4940   -1.2440    3.1210 H   0  0  0  0  0  0  0  0  0  0  0
    4.0890   -1.4140    4.8450 H   0  0  0  0  0  0  0  0  0  0  0
    3.8210   -3.8400    4.5680 H   0  0  0  0  0  0  0  0  0  0  0
    5.4300   -3.3420    4.1000 H   0  0  0  0  0  0  0  0  0  0  0
  1  2  2  0  0  0  0
  1  4  1  0  0  0  0
  1 11  1  0  0  0  0
  2  3  1  0  0  0  0
  2 36  1  0  0  0  0
  3  6  2  0  0  0  0
  3 37  1  0  0  0  0
  4  5  2  0  0  0  0
  4 38  1  0  0  0  0
  5  6  1  0  0  0  0
  5 10  1  0  0  0  0
  6  7  1  0  0  0  0
  7  8  2  0  0  0  0
  8  9  1  0  0  0  0
  8 15  1  0  0  0  0
  9 10  2  0  0  0  0
  9 39  1  0  0  0  0
 10 12  1  0  0  0  0
 11 31  1  0  0  0  0
 11 35  1  0  0  0  0
 12 13  2  0  0  0  0
 12 14  1  0  0  0  0
 14 40  1  0  0  0  0
 15 16  1  0  0  0  0
 15 17  2  0  0  0  0
 18 16  1  1  0  0  0
 16 41  1  0  0  0  0
 18 19  1  0  0  0  0
 18 20  1  0  0  0  0
 18 42  1  0  0  0  0
 19 22  1  0  0  0  0
 19 23  2  0  0  0  0
 20 21  1  0  0  0  0
 20 43  1  0  0  0  0
 20 44  1  0  0  0  0
 21 25  2  0  0  0  0
 21 29  1  0  0  0  0
 22 24  1  0  0  0  0
 24 45  1  0  0  0  0
 24 46  1  0  0  0  0
 24 47  1  0  0  0  0
 25 26  1  0  0  0  0
 25 48  1  0  0  0  0
 26 27  2  0  0  0  0
 26 49  1  0  0  0  0
 27 28  1  0  0  0  0
 27 30  1  0  0  0  0
 28 29  2  0  0  0  0
 28 50  1  0  0  0  0
 29 51  1  0  0  0  0
 30 52  1  0  0  0  0
 31 32  1  0  0  0  0
 31 53  1  0  0  0  0
 31 54  1  0  0  0  0
 32 33  1  0  0  0  0
 32 55  1  0  0  0  0
 32 56  1  0  0  0  0
 33 34  1  0  0  0  0
 34 35  1  0  0  0  0
 34 57  1  0  0  0  0
 34 58  1  0  0  0  0
 35 59  1  0  0  0  0
 35 60  1  0  0  0  0
M  END
> <From>
www.bindingDB.org

> <BindingDB Reactant_set_id>
50077204

> <Ligand InChI>
InChI=1S/C25H25N3O7/c1-34-25(33)22(12-15-2-5-17(29)6-3-15)27-23(30)21-14-19(24(31)32)18-13-16(4-7-20(18)26-21)28-8-10-35-11-9-28/h2-7,13-14,22,29H,8-12H2,1H3,(H,27,30)(H,31,32)/t22-/m0/s1

> <Ligand InChI Key>
IYNYMBFCHOYHTL-QFIPXVFZSA-N

> <BindingDB MonomerID>
50444936

> <BindingDB Ligand Name>
CHEMBL3099760

> <Target Name Assigned by Curator or DataSource>
Cyclin-dependent kinase 2

> <Target Source Organism According to Curator or DataSource>
Homo sapiens

> <Ki (nM)>
 2800

> <IC50 (nM)>


> <Kd (nM)>


> <EC50 (nM)>


> <kon (M-1-s-1)>


> <koff (s-1)>


> <pH>


> <Temp C>


> <Curation/DataSource>
ChEMBL

> <Article DOI>
10.1016/j.bmcl.2013.11.041

> <PMID>
24332088

> <PubChem AID>


> <Patent Number>


> <Authors>
Deng, Y; Shipps, GW; Zhao, L; Siddiqui, MA; Popovici-Muller, J; Curran, PJ; Duca, JS; Hruza, AW; Fischmann, TO; Madison, VS; Zhang, R; McNemar, CW; Mayhood, TW; Syto, R; Annis, A; Kirschmeier, P; Lees, EM; Parry, DA; Windsor, WT

> <Institution>
Merck Research Laboratories

> <Link to Ligand in BindingDB>
http://www.bindingdb.org/bind/chemsearch/marvin/MolStructure.jsp?monomerid=50444936

> <Link to Ligand-Target Pair in BindingDB>
http://www.bindingdb.org/jsp/dbsearch/PrimarySearch_ki.jsp?energyterm=kJ/mole&tag=pol&polymerid=796&target=Cyclin-dependent+kinase+2&column=ki&startPg=0&Increment=50&submit=Search

> <Link to Ligand-Target Pair in BindingDB>
http://www.bindingdb.org/jsp/dbsearch/PrimarySearch_ki.jsp?energyterm=kJ/mole&tag=r21&monomerid=50444936&enzyme=Cyclin-dependent+kinase+2&column=ki&startPg=0&Increment=50&submit=Search

> <Ligand HET ID in PDB>


> <PDB ID(s) for Ligand-Target Complex>


> <PubChem CID>
72946100

> <PubChem SID>
194942832

> <ChEBI ID of Ligand>


> <ChEMBL ID of Ligand>
CHEMBL3099760

> <DrugBank ID of Ligand>


> <IUPHAR_GRAC ID of Ligand>


> <KEGG ID of Ligand>


> <ZINC ID of Ligand>


> <Number of Protein Chains in Target (bigger than 1 implies a multichain complex)>
1

> <BindingDB Target Chain Sequence>
MENFQKVEKIGEGTYGVVYKARNKLTGEVVALKKIRLDTETEGVPSTAIREISLLKELNHPNIVKLLDVIHTENKLYLVFEFLHQDLKKFMDASALTGIPLPLIKSYLFQLLQGLAFCHSHRVLHRDLKPQNLLINTEGAIKLADFGLARAFGVPVRTYTHEVVTLWYRAPEILLGCKYYSTAVDIWSLGCIFAEMVTRRALFPGDSEIDQLFRIFRTLGTPDEVVWPGVTSMPDYKPSFPKWARQDFSKVVPPLDEDGRSLLSQMLHYDPNKRISAKAALAHPFFQDVTKPVPHLRL

> <PDB ID(s) of Target Chain>
1CKP,1DI8,1DM2,1E1V,1E1X,1E9H,1F5Q,1FIN,1FQ1,1FVT,1FVV,1G5S,1GIH,1GY3,1GZ8,1H00,1H01,1H07,1H08,1H0V,1H0W,1H1P,1H1Q,1H1R,1H1S,1H24,1H25,1H26,1H27,1H28,1HCK,1HCL,1JST,1JSU,1JSV,1JVP,1KE5,1KE6,1KE7,1KE8,1KE9,1OGU,1OI9,1OIQ,1OIR,1OIU,1OIY,1OKV,1OKW,1OL1,1OL2,1P2A,1P5E,1PF8,1PKD,1PW2,1PXI,1PXJ,1PXK,1PXL,1PXM,1PXN,1PXO,1PXP,1PYE,1QMZ,1R78,1URC,1URW,1V1K,1VYW,1VYZ,1W0X,1W8C,1W98,1WCC,1Y8Y,1Y91,1YKR,2A0C,2A4L,2B52,2B53,2B54,2B55,2BHE,2BHH,2BKZ,2BPM,2BTR,2BTS,2C4G,2C5N,2C5O,2C5V,2C5X,2C5Y,2C68,2C69,2C6I,2C6K,2C6L,2C6M,2C6O,2C6T,2CCH,2CCI,2CJM,2CLX,2DUV,2EXM,2FVD,2G9X,2I40,2J9M,2JGZ,2R3F,2R3G,2R3H,2R3I,2R3J,2R3K,2R3L,2R3M,2R3N,2R3O,2R3P,2R3Q,2R3R,2R64,2UUE,2UZB,2UZD,2UZE,2UZL,2UZN,2UZO,2V0D,2V22,2VTA,2VTH,2VTI,2VTJ,2VTL,2VTM,2VTN,2VTO,2VTP,2VTQ,2VTR,2VTS,2VTT,2VU3,2VV9,2W05,2W06,2W17,2W1H,2WEV,2WFY,2WHB,2WIH,2WIP,2WMA,2WMB,2WPA,2WXV,2X1N,2XMY,2XNB,3BHT,3BHU,3BHV,3DDP,3DDQ,3DOG,3EID,3EJ1,3EOC,3EZR,3EZV,3F5X,3FZ1,3IG7,3IGG,3LE6,3LFN,3LFQ,3LFS,3MY5,3NS9,3PJ8,3PXF,3PXQ,3PXR,3PXY,3PXZ,3PY0,3PY1,3QHR,3QHW,3QL8,3QQF,3QQG,3QQH,3QQJ,3QQK,3QQL,3QRT,3QRU,3QTQ,3QTR,3QTS,3QTU,3QTW,3QTX,3QTZ,3QU0,3QWJ,3QWK,3QX2,3QX4,3QXO,3QXP,3QZF,3QZG,3QZH,3QZI,3R1Q,3R1S,3R1Y,3R28,3R6X,3R71,3R73,3R7E,3R7I,3R7U,3R7V,3R7Y,3R83,3R8L,3R8M,3R8P,3R8U,3R8V,3R8Z,3R9D,3R9H,3R9N,3R9O,3RAH,3RAI,3RAK,3RAL,3RJC,3RK5,3RK7,3RK9,3RKB,3RM6,3RM7,3RMF,3RNI,3ROY,3RPO,3RPR,3RPV,3RPY,3RZB,3S00,3S0O,3S1H,3S2P,3SQQ,3SW4,3SW7,3TI1,3TIY,3TIZ,3TNW,3ULI,3UNJ,3UNK,3WBL,4ACM,4BCK,4BCM,4BCN,4BCO,4BCP,4BCQ,4BGH,4BZD,4CFM,4CFN,4CFU,4CFV,4CFW,4CFX,4D1X,4D1Z,4EK3,4EK4,4EK5,4EK6,4EK8,4EOQ,4EOR,4EOS,4ERW,4EZ3,4EZ7,4FKG,4FKI,4FKJ,4FKL,4FKO,4FKP,4FKQ,4FKR,4FKS,4FKT,4FKU,4FKV,4FKW,4FX3,4GCJ,4I3Z,4II5,4KD1,4LYN,4NJ3,4RJ3,5A14,5AND,5ANE,5ANG,5ANI,5ANJ,5ANK,5ANO,5CYI,5D1J,5FP5,5FP6,5IEV,5IEX,5IEY,5IF1,5JQ5,5JQ8,5K4J,5L2W,5LMK,5MHQ,5NEV,5OO0,5OSJ,5UQ1,5UQ2,5UQ3,6ATH,6GUB,6GUC,6GUE,6GUF,6GUH,6GUK,6GVA,6INL,6JGM,6OQI,6P3W,6Q3B,6Q3C,6Q3F,6Q48,6Q49,6Q4A,6Q4B,6Q4C,6Q4D,6Q4E,6Q4F,6Q4H,6Q4J,6Q4K,6RIJ,6SG4,7ACK,7B5L,7B5R,7B7S,7E34,7KJS,7M2F,7NVQ

> <UniProt (SwissProt) Recommended Name of Target Chain>
Cyclin-dependent kinase 2

> <UniProt (SwissProt) Entry Name of Target Chain>
CDK2_HUMAN

> <UniProt (SwissProt) Primary ID of Target Chain>
P24941

> <UniProt (SwissProt) Secondary ID(s) of Target Chain>
A8K7C6,O75100

> <UniProt (SwissProt) Alternative ID(s) of Target Chain>


> <UniProt (TrEMBL) Submitted Name of Target Chain>


> <UniProt (TrEMBL) Entry Name of Target Chain>


> <UniProt (TrEMBL) Primary ID of Target Chain>
A0A024RB77

> <UniProt (TrEMBL) Secondary ID(s) of Target Chain>


> <UniProt (TrEMBL) Alternative ID(s) of Target Chain>


$$$$
BindingDB_50224883_mol_1

Vconf v2.0 Academic SN VC001-00000579
 50 53  0  0  0  0  0  0  0  0999 V2000
   -2.4910  -18.3160    0.7170 C   0  0  0  0  0  0  0  0  0  0  0
   -2.5010  -19.7090    0.9430 C   0  0  0  0  0  0  0  0  0  0  0
   -1.6210  -20.5140    0.1940 C   0  0  0  0  0  0  0  0  0  0  0
   -0.7510  -19.9810   -0.7630 C   0  0  0  0  0  0  0  0  0  0  0
   -0.7370  -18.5900   -0.9880 C   0  0  0  0  0  0  0  0  0  0  0
   -1.6110  -17.7660   -0.2400 C   0  0  0  0  0  0  0  0  0  0  0
    0.1500  -18.1680   -1.9300 N   0  0  0  0  0  0  0  0  0  0  0
    0.4740  -16.9140   -2.3490 C   0  0  0  0  0  0  0  0  0  0  0
    1.4060  -16.6980   -3.3120 N   0  0  0  0  0  0  0  0  0  0  0
   -0.0290  -15.8850   -1.8480 O   0  0  0  0  0  0  0  0  0  0  0
    2.0720  -17.6330   -4.0380 C   0  0  0  0  0  0  0  0  0  0  0
    1.8240  -18.9640   -3.9460 N   0  0  0  0  0  0  0  0  0  0  0
    2.4780  -19.9160   -4.6580 C   0  0  0  0  0  0  0  0  0  0  0
    3.4930  -19.4960   -5.5390 C   0  0  0  0  0  0  0  0  0  0  0
    3.7410  -18.1650   -5.6480 N   0  0  0  0  0  0  0  0  0  0  0
    3.0670  -17.2240   -4.9400 C   0  0  0  0  0  0  0  0  0  0  0
    4.1840  -20.3340   -6.2500 C   0  0  0  0  0  0  0  0  0  0  0
    4.7940  -21.0750   -6.8800 N   0  0  0  0  0  0  0  0  0  0  0
    2.1540  -21.2280   -4.4860 O   0  0  0  0  0  0  0  0  0  0  0
    0.0970  -20.7920   -1.4710 O   0  0  0  0  0  0  0  0  0  0  0
    0.1400  -22.2100   -1.2560 C   0  0  0  0  0  0  0  0  0  0  0
    0.7770  -21.5940   -4.3530 C   0  0  0  0  0  0  0  0  0  0  0
    1.1560  -22.8860   -2.1850 C   0  0  0  0  0  0  0  0  0  0  0
    0.6620  -22.9500   -3.6410 C   0  0  0  0  0  0  0  0  0  0  0
   -3.5160  -17.2740    1.5790 Cl  0  0  0  0  0  0  0  0  0  0  0
   -3.3310  -20.2920    1.8530 N   0  0  0  0  0  0  0  0  0  0  0
   -3.3350  -21.6950    2.1000 C   0  0  0  0  0  0  0  0  0  0  0
   -4.3520  -22.0980    3.0650 C   0  0  0  0  0  0  0  0  0  0  0
   -5.3590  -23.0110    2.7770 C   0  0  0  0  0  0  0  0  0  0  0
   -6.1240  -23.2910    3.8350 N   0  0  0  0  0  0  0  0  0  0  0
   -5.7280  -22.6170    4.9240 C   0  0  0  0  0  0  0  0  0  0  0
   -4.3590  -21.5760    4.7140 S   0  0  0  0  0  0  0  0  0  0  0
   -1.6160  -21.5170    0.3510 H   0  0  0  0  0  0  0  0  0  0  0
   -1.6100  -16.7610   -0.3960 H   0  0  0  0  0  0  0  0  0  0  0
    0.6400  -18.8840   -2.3600 H   0  0  0  0  0  0  0  0  0  0  0
    1.6230  -15.7720   -3.4950 H   0  0  0  0  0  0  0  0  0  0  0
    3.2880  -16.2340   -5.0560 H   0  0  0  0  0  0  0  0  0  0  0
   -0.8450  -22.6500   -1.4340 H   0  0  0  0  0  0  0  0  0  0  0
    0.4400  -22.4060   -0.2240 H   0  0  0  0  0  0  0  0  0  0  0
    0.3350  -21.6790   -5.3460 H   0  0  0  0  0  0  0  0  0  0  0
    0.2110  -20.8510   -3.7920 H   0  0  0  0  0  0  0  0  0  0  0
    2.1090  -22.3580   -2.1300 H   0  0  0  0  0  0  0  0  0  0  0
    1.3010  -23.9060   -1.8300 H   0  0  0  0  0  0  0  0  0  0  0
    1.2630  -23.6800   -4.1830 H   0  0  0  0  0  0  0  0  0  0  0
   -0.3780  -23.2770   -3.6570 H   0  0  0  0  0  0  0  0  0  0  0
   -3.9440  -19.7240    2.3460 H   0  0  0  0  0  0  0  0  0  0  0
   -3.5080  -22.2220    1.1570 H   0  0  0  0  0  0  0  0  0  0  0
   -2.3580  -21.9910    2.4900 H   0  0  0  0  0  0  0  0  0  0  0
   -5.4850  -23.4390    1.8600 H   0  0  0  0  0  0  0  0  0  0  0
   -6.2060  -22.7110    5.8220 H   0  0  0  0  0  0  0  0  0  0  0
  1  2  1  0  0  0  0
  1  6  2  0  0  0  0
  1 25  1  0  0  0  0
  2  3  2  0  0  0  0
  2 26  1  0  0  0  0
  3  4  1  0  0  0  0
  3 33  1  0  0  0  0
  4  5  2  0  0  0  0
  4 20  1  0  0  0  0
  5  6  1  0  0  0  0
  5  7  1  0  0  0  0
  6 34  1  0  0  0  0
  7  8  1  0  0  0  0
  7 35  1  0  0  0  0
  8  9  1  0  0  0  0
  8 10  2  0  0  0  0
  9 11  1  0  0  0  0
  9 36  1  0  0  0  0
 11 12  1  0  0  0  0
 11 16  2  0  0  0  0
 12 13  2  0  0  0  0
 13 14  1  0  0  0  0
 13 19  1  0  0  0  0
 14 15  2  0  0  0  0
 14 17  1  0  0  0  0
 15 16  1  0  0  0  0
 16 37  1  0  0  0  0
 17 18  3  0  0  0  0
 19 22  1  0  0  0  0
 20 21  1  0  0  0  0
 21 23  1  0  0  0  0
 21 38  1  0  0  0  0
 21 39  1  0  0  0  0
 22 24  1  0  0  0  0
 22 40  1  0  0  0  0
 22 41  1  0  0  0  0
 23 24  1  0  0  0  0
 23 42  1  0  0  0  0
 23 43  1  0  0  0  0
 24 44  1  0  0  0  0
 24 45  1  0  0  0  0
 26 27  1  0  0  0  0
 26 46  1  0  0  0  0
 27 28  1  0  0  0  0
 27 47  1  0  0  0  0
 27 48  1  0  0  0  0
 28 29  2  0  0  0  0
 28 32  1  0  0  0  0
 29 30  1  0  0  0  0
 29 49  1  0  0  0  0
 30 31  2  0  0  0  0
 31 32  1  0  0  0  0
 31 50  1  0  0  0  0
M  END
> <From>
www.bindingDB.org

> <BindingDB Reactant_set_id>
50851835

> <Ligand InChI>
InChI=1S/C20H18ClN7O3S/c21-13-5-15-17(6-14(13)24-9-12-8-23-11-32-12)30-3-1-2-4-31-19-16(7-22)25-10-18(27-19)28-20(29)26-15/h5-6,8,10-11,24H,1-4,9H2,(H2,26,27,28,29)

> <Ligand InChI Key>
AZTMYWWWILJAKW-UHFFFAOYSA-N

> <BindingDB MonomerID>
50224883

> <BindingDB Ligand Name>
7-chloro-3-oxo-8-[(thiazol-5-ylmethyl)-amino]-11,16-dioxa-2,4,19,21-tetraaza-tricyclo[15.3.1.0*5,10*]henicosa-1(21),5,7,9,17,19-hexaene-18-crbonitrile::CHEMBL248757

> <Target Name Assigned by Curator or DataSource>
Cyclin-dependent kinase 2

> <Target Source Organism According to Curator or DataSource>
Homo sapiens

> <Ki (nM)>
 3088

> <IC50 (nM)>


> <Kd (nM)>


> <EC50 (nM)>


> <kon (M-1-s-1)>


> <koff (s-1)>


> <pH>


> <Temp C>


> <Curation/DataSource>
ChEMBL

> <Article DOI>
10.1016/j.bmcl.2007.09.063

> <PMID>
17935989

> <PubChem AID>


> <Patent Number>


> <Authors>
Tao, ZF; Chen, Z; Bui, MH; Kovar, P; Johnson, E; Bouska, J; Zhang, H; Rosenberg, S; Sowin, T; Lin, NH

> <Institution>
Abbott Laboratories

> <Link to Ligand in BindingDB>
http://www.bindingdb.org/bind/chemsearch/marvin/MolStructure.jsp?monomerid=50224883

> <Link to Ligand-Target Pair in BindingDB>
http://www.bindingdb.org/jsp/dbsearch/PrimarySearch_ki.jsp?energyterm=kJ/mole&tag=pol&polymerid=796&target=Cyclin-dependent+kinase+2&column=ki&startPg=0&Increment=50&submit=Search

> <Link to Ligand-Target Pair in BindingDB>
http://www.bindingdb.org/jsp/dbsearch/PrimarySearch_ki.jsp?energyterm=kJ/mole&tag=r21&monomerid=50224883&enzyme=Cyclin-dependent+kinase+2&column=ki&startPg=0&Increment=50&submit=Search

> <Ligand HET ID in PDB>


> <PDB ID(s) for Ligand-Target Complex>


> <PubChem CID>
44444843

> <PubChem SID>
104096404

> <ChEBI ID of Ligand>


> <ChEMBL ID of Ligand>
CHEMBL248757

> <DrugBank ID of Ligand>


> <IUPHAR_GRAC ID of Ligand>


> <KEGG ID of Ligand>


> <ZINC ID of Ligand>
ZINC28963230

> <Number of Protein Chains in Target (bigger than 1 implies a multichain complex)>
1

> <BindingDB Target Chain Sequence>
MENFQKVEKIGEGTYGVVYKARNKLTGEVVALKKIRLDTETEGVPSTAIREISLLKELNHPNIVKLLDVIHTENKLYLVFEFLHQDLKKFMDASALTGIPLPLIKSYLFQLLQGLAFCHSHRVLHRDLKPQNLLINTEGAIKLADFGLARAFGVPVRTYTHEVVTLWYRAPEILLGCKYYSTAVDIWSLGCIFAEMVTRRALFPGDSEIDQLFRIFRTLGTPDEVVWPGVTSMPDYKPSFPKWARQDFSKVVPPLDEDGRSLLSQMLHYDPNKRISAKAALAHPFFQDVTKPVPHLRL

> <PDB ID(s) of Target Chain>
1CKP,1DI8,1DM2,1E1V,1E1X,1E9H,1F5Q,1FIN,1FQ1,1FVT,1FVV,1G5S,1GIH,1GY3,1GZ8,1H00,1H01,1H07,1H08,1H0V,1H0W,1H1P,1H1Q,1H1R,1H1S,1H24,1H25,1H26,1H27,1H28,1HCK,1HCL,1JST,1JSU,1JSV,1JVP,1KE5,1KE6,1KE7,1KE8,1KE9,1OGU,1OI9,1OIQ,1OIR,1OIU,1OIY,1OKV,1OKW,1OL1,1OL2,1P2A,1P5E,1PF8,1PKD,1PW2,1PXI,1PXJ,1PXK,1PXL,1PXM,1PXN,1PXO,1PXP,1PYE,1QMZ,1R78,1URC,1URW,1V1K,1VYW,1VYZ,1W0X,1W8C,1W98,1WCC,1Y8Y,1Y91,1YKR,2A0C,2A4L,2B52,2B53,2B54,2B55,2BHE,2BHH,2BKZ,2BPM,2BTR,2BTS,2C4G,2C5N,2C5O,2C5V,2C5X,2C5Y,2C68,2C69,2C6I,2C6K,2C6L,2C6M,2C6O,2C6T,2CCH,2CCI,2CJM,2CLX,2DUV,2EXM,2FVD,2G9X,2I40,2J9M,2JGZ,2R3F,2R3G,2R3H,2R3I,2R3J,2R3K,2R3L,2R3M,2R3N,2R3O,2R3P,2R3Q,2R3R,2R64,2UUE,2UZB,2UZD,2UZE,2UZL,2UZN,2UZO,2V0D,2V22,2VTA,2VTH,2VTI,2VTJ,2VTL,2VTM,2VTN,2VTO,2VTP,2VTQ,2VTR,2VTS,2VTT,2VU3,2VV9,2W05,2W06,2W17,2W1H,2WEV,2WFY,2WHB,2WIH,2WIP,2WMA,2WMB,2WPA,2WXV,2X1N,2XMY,2XNB,3BHT,3BHU,3BHV,3DDP,3DDQ,3DOG,3EID,3EJ1,3EOC,3EZR,3EZV,3F5X,3FZ1,3IG7,3IGG,3LE6,3LFN,3LFQ,3LFS,3MY5,3NS9,3PJ8,3PXF,3PXQ,3PXR,3PXY,3PXZ,3PY0,3PY1,3QHR,3QHW,3QL8,3QQF,3QQG,3QQH,3QQJ,3QQK,3QQL,3QRT,3QRU,3QTQ,3QTR,3QTS,3QTU,3QTW,3QTX,3QTZ,3QU0,3QWJ,3QWK,3QX2,3QX4,3QXO,3QXP,3QZF,3QZG,3QZH,3QZI,3R1Q,3R1S,3R1Y,3R28,3R6X,3R71,3R73,3R7E,3R7I,3R7U,3R7V,3R7Y,3R83,3R8L,3R8M,3R8P,3R8U,3R8V,3R8Z,3R9D,3R9H,3R9N,3R9O,3RAH,3RAI,3RAK,3RAL,3RJC,3RK5,3RK7,3RK9,3RKB,3RM6,3RM7,3RMF,3RNI,3ROY,3RPO,3RPR,3RPV,3RPY,3RZB,3S00,3S0O,3S1H,3S2P,3SQQ,3SW4,3SW7,3TI1,3TIY,3TIZ,3TNW,3ULI,3UNJ,3UNK,3WBL,4ACM,4BCK,4BCM,4BCN,4BCO,4BCP,4BCQ,4BGH,4BZD,4CFM,4CFN,4CFU,4CFV,4CFW,4CFX,4D1X,4D1Z,4EK3,4EK4,4EK5,4EK6,4EK8,4EOQ,4EOR,4EOS,4ERW,4EZ3,4EZ7,4FKG,4FKI,4FKJ,4FKL,4FKO,4FKP,4FKQ,4FKR,4FKS,4FKT,4FKU,4FKV,4FKW,4FX3,4GCJ,4I3Z,4II5,4KD1,4LYN,4NJ3,4RJ3,5A14,5AND,5ANE,5ANG,5ANI,5ANJ,5ANK,5ANO,5CYI,5D1J,5FP5,5FP6,5IEV,5IEX,5IEY,5IF1,5JQ5,5JQ8,5K4J,5L2W,5LMK,5MHQ,5NEV,5OO0,5OSJ,5UQ1,5UQ2,5UQ3,6ATH,6GUB,6GUC,6GUE,6GUF,6GUH,6GUK,6GVA,6INL,6JGM,6OQI,6P3W,6Q3B,6Q3C,6Q3F,6Q48,6Q49,6Q4A,6Q4B,6Q4C,6Q4D,6Q4E,6Q4F,6Q4H,6Q4J,6Q4K,6RIJ,6SG4,7ACK,7B5L,7B5R,7B7S,7E34,7KJS,7M2F,7NVQ

> <UniProt (SwissProt) Recommended Name of Target Chain>
Cyclin-dependent kinase 2

> <UniProt (SwissProt) Entry Name of Target Chain>
CDK2_HUMAN

> <UniProt (SwissProt) Primary ID of Target Chain>
P24941

> <UniProt (SwissProt) Secondary ID(s) of Target Chain>
A8K7C6,O75100

> <UniProt (SwissProt) Alternative ID(s) of Target Chain>


> <UniProt (TrEMBL) Submitted Name of Target Chain>


> <UniProt (TrEMBL) Entry Name of Target Chain>


> <UniProt (TrEMBL) Primary ID of Target Chain>
A0A024RB77

> <UniProt (TrEMBL) Secondary ID(s) of Target Chain>


> <UniProt (TrEMBL) Alternative ID(s) of Target Chain>


$$$$
BindingDB_50258424_mol_1

Vconf v2.0 Academic SN VC001-00000579
 45 48  0  0  0  0  0  0  0  0999 V2000
    9.2010   -8.0200    0.4260 C   0  0  0  0  0  0  0  0  0  0  0
    8.5210   -9.1600    0.8980 C   0  0  0  0  0  0  0  0  0  0  0
    9.0830   -9.8710    1.9100 N   0  0  0  0  0  0  0  0  0  0  0
   10.4200   -7.6410    1.0150 C   0  0  0  0  0  0  0  0  0  0  0
   10.9080   -8.4380    2.0570 C   0  0  0  0  0  0  0  0  0  0  0
   10.2220   -9.5220    2.4500 N   0  0  0  0  0  0  0  0  0  0  0
   10.9230  -10.0760    3.4540 C   0  0  0  0  0  0  0  0  0  0  0
   12.0100   -9.2980    3.6430 N   0  0  0  0  0  0  0  0  0  0  0
   12.0120   -8.3090    2.8020 N   0  0  0  0  0  0  0  0  0  0  0
   10.6250  -11.2370    4.2100 C   0  0  0  0  0  0  0  0  0  0  0
   11.3030  -11.4760    5.4240 C   0  0  0  0  0  0  0  0  0  0  0
   11.0170  -12.6130    6.1960 C   0  0  0  0  0  0  0  0  0  0  0
   10.0550  -13.5340    5.7560 C   0  0  0  0  0  0  0  0  0  0  0
    9.3690  -13.3400    4.5380 C   0  0  0  0  0  0  0  0  0  0  0
    9.6660  -12.1830    3.7810 C   0  0  0  0  0  0  0  0  0  0  0
    8.3680  -14.3460    4.0920 C   0  0  0  0  0  0  0  0  0  0  0
    7.8050  -14.0760    2.8660 F   0  0  0  0  0  0  0  0  0  0  0
    8.9520  -15.5860    3.9920 F   0  0  0  0  0  0  0  0  0  0  0
    7.3400  -14.4200    5.0000 F   0  0  0  0  0  0  0  0  0  0  0
    7.3410   -9.5300    0.3570 N   0  0  0  0  0  0  0  0  0  0  0
    6.5880  -10.6490    0.8090 C   0  0  1  0  0  0  0  0  0  0  0
    5.9880  -10.3890    2.2070 C   0  0  0  0  0  0  0  0  0  0  0
    5.1140  -11.5700    2.6570 C   0  0  0  0  0  0  0  0  0  0  0
    3.9940  -11.8310    1.6400 C   0  0  1  0  0  0  0  0  0  0  0
    4.5930  -12.1000    0.2510 C   0  0  0  0  0  0  0  0  0  0  0
    5.4540  -10.9100   -0.1980 C   0  0  0  0  0  0  0  0  0  0  0
    3.2380  -12.9590    2.0550 O   0  0  0  0  0  0  0  0  0  0  0
    8.8080   -7.4640   -0.3340 H   0  0  0  0  0  0  0  0  0  0  0
   10.9270   -6.8140    0.7000 H   0  0  0  0  0  0  0  0  0  0  0
   12.0070  -10.8170    5.7630 H   0  0  0  0  0  0  0  0  0  0  0
   11.5090  -12.7690    7.0760 H   0  0  0  0  0  0  0  0  0  0  0
    9.8560  -14.3580    6.3250 H   0  0  0  0  0  0  0  0  0  0  0
    9.1800  -12.0440    2.8970 H   0  0  0  0  0  0  0  0  0  0  0
    6.9950   -9.0140   -0.3870 H   0  0  0  0  0  0  0  0  0  0  0
    7.2280  -11.5340    0.8470 H   0  0  0  0  0  0  0  0  0  0  0
    5.3810   -9.4820    2.1800 H   0  0  0  0  0  0  0  0  0  0  0
    6.7880  -10.2550    2.9350 H   0  0  0  0  0  0  0  0  0  0  0
    5.7330  -12.4620    2.7520 H   0  0  0  0  0  0  0  0  0  0  0
    4.6730  -11.3410    3.6270 H   0  0  0  0  0  0  0  0  0  0  0
    3.3380  -10.9610    1.5910 H   0  0  0  0  0  0  0  0  0  0  0
    3.7870  -12.2510   -0.4680 H   0  0  0  0  0  0  0  0  0  0  0
    5.2090  -12.9990    0.2880 H   0  0  0  0  0  0  0  0  0  0  0
    4.8250  -10.0220   -0.2820 H   0  0  0  0  0  0  0  0  0  0  0
    5.8840  -11.1330   -1.1760 H   0  0  0  0  0  0  0  0  0  0  0
    2.4870  -13.1830    1.4660 H   0  0  0  0  0  0  0  0  0  0  0
  1  2  1  0  0  0  0
  1  4  2  0  0  0  0
  1 28  1  0  0  0  0
  2  3  2  0  0  0  0
  2 20  1  0  0  0  0
  3  6  1  0  0  0  0
  4  5  1  0  0  0  0
  4 29  1  0  0  0  0
  5  6  1  0  0  0  0
  5  9  2  0  0  0  0
  6  7  1  0  0  0  0
  7  8  2  0  0  0  0
  7 10  1  0  0  0  0
  8  9  1  0  0  0  0
 10 11  1  0  0  0  0
 10 15  2  0  0  0  0
 11 12  2  0  0  0  0
 11 30  1  0  0  0  0
 12 13  1  0  0  0  0
 12 31  1  0  0  0  0
 13 14  2  0  0  0  0
 13 32  1  0  0  0  0
 14 15  1  0  0  0  0
 14 16  1  0  0  0  0
 15 33  1  0  0  0  0
 16 17  1  0  0  0  0
 16 18  1  0  0  0  0
 16 19  1  0  0  0  0
 21 20  1  6  0  0  0
 20 34  1  0  0  0  0
 21 22  1  0  0  0  0
 21 26  1  0  0  0  0
 21 35  1  0  0  0  0
 22 23  1  0  0  0  0
 22 36  1  0  0  0  0
 22 37  1  0  0  0  0
 23 24  1  0  0  0  0
 23 38  1  0  0  0  0
 23 39  1  0  0  0  0
 24 25  1  0  0  0  0
 24 27  1  1  0  0  0
 24 40  1  0  0  0  0
 25 26  1  0  0  0  0
 25 41  1  0  0  0  0
 25 42  1  0  0  0  0
 26 43  1  0  0  0  0
 26 44  1  0  0  0  0
 27 45  1  0  0  0  0
M  END
> <From>
www.bindingDB.org

> <BindingDB Reactant_set_id>
50459449

> <Ligand InChI>
InChI=1S/C18H18F3N5O/c19-18(20,21)12-3-1-2-11(10-12)17-24-23-16-9-8-15(25-26(16)17)22-13-4-6-14(27)7-5-13/h1-3,8-10,13-14,27H,4-7H2,(H,22,25)/t13-,14-

> <Ligand InChI Key>
DJIOCMRPQBSLOC-HDJSIYSDSA-N

> <BindingDB MonomerID>
50258424

> <BindingDB Ligand Name>
CHEMBL494221::trans-4-(3-(3-(trifluoromethyl)phenyl)-[1,2,4]triazolo[4,3-b]pyridazin-6-ylamino)cyclohexanol

> <Target Name Assigned by Curator or DataSource>
Cyclin-dependent kinase 2

> <Target Source Organism According to Curator or DataSource>
Homo sapiens

> <Ki (nM)>
 3100

> <IC50 (nM)>


> <Kd (nM)>


> <EC50 (nM)>


> <kon (M-1-s-1)>


> <koff (s-1)>


> <pH>


> <Temp C>


> <Curation/DataSource>
ChEMBL

> <Article DOI>
10.1016/j.bmcl.2009.04.061

> <PMID>
19414255

> <PubChem AID>


> <Patent Number>


> <Authors>
Grey, R; Pierce, AC; Bemis, GW; Jacobs, MD; Moody, CS; Jajoo, R; Mohal, N; Green, J

> <Institution>
Vertex Pharmaceuticals Inc

> <Link to Ligand in BindingDB>
http://www.bindingdb.org/bind/chemsearch/marvin/MolStructure.jsp?monomerid=50258424

> <Link to Ligand-Target Pair in BindingDB>
http://www.bindingdb.org/jsp/dbsearch/PrimarySearch_ki.jsp?energyterm=kJ/mole&tag=pol&polymerid=796&target=Cyclin-dependent+kinase+2&column=ki&startPg=0&Increment=50&submit=Search

> <Link to Ligand-Target Pair in BindingDB>
http://www.bindingdb.org/jsp/dbsearch/PrimarySearch_ki.jsp?energyterm=kJ/mole&tag=r21&monomerid=50258424&enzyme=Cyclin-dependent+kinase+2&column=ki&startPg=0&Increment=50&submit=Search

> <Ligand HET ID in PDB>


> <PDB ID(s) for Ligand-Target Complex>


> <PubChem CID>
44219633

> <PubChem SID>
104109107

> <ChEBI ID of Ligand>


> <ChEMBL ID of Ligand>
CHEMBL494221

> <DrugBank ID of Ligand>


> <IUPHAR_GRAC ID of Ligand>


> <KEGG ID of Ligand>


> <ZINC ID of Ligand>
ZINC40953870

> <Number of Protein Chains in Target (bigger than 1 implies a multichain complex)>
1

> <BindingDB Target Chain Sequence>
MENFQKVEKIGEGTYGVVYKARNKLTGEVVALKKIRLDTETEGVPSTAIREISLLKELNHPNIVKLLDVIHTENKLYLVFEFLHQDLKKFMDASALTGIPLPLIKSYLFQLLQGLAFCHSHRVLHRDLKPQNLLINTEGAIKLADFGLARAFGVPVRTYTHEVVTLWYRAPEILLGCKYYSTAVDIWSLGCIFAEMVTRRALFPGDSEIDQLFRIFRTLGTPDEVVWPGVTSMPDYKPSFPKWARQDFSKVVPPLDEDGRSLLSQMLHYDPNKRISAKAALAHPFFQDVTKPVPHLRL

> <PDB ID(s) of Target Chain>
1CKP,1DI8,1DM2,1E1V,1E1X,1E9H,1F5Q,1FIN,1FQ1,1FVT,1FVV,1G5S,1GIH,1GY3,1GZ8,1H00,1H01,1H07,1H08,1H0V,1H0W,1H1P,1H1Q,1H1R,1H1S,1H24,1H25,1H26,1H27,1H28,1HCK,1HCL,1JST,1JSU,1JSV,1JVP,1KE5,1KE6,1KE7,1KE8,1KE9,1OGU,1OI9,1OIQ,1OIR,1OIU,1OIY,1OKV,1OKW,1OL1,1OL2,1P2A,1P5E,1PF8,1PKD,1PW2,1PXI,1PXJ,1PXK,1PXL,1PXM,1PXN,1PXO,1PXP,1PYE,1QMZ,1R78,1URC,1URW,1V1K,1VYW,1VYZ,1W0X,1W8C,1W98,1WCC,1Y8Y,1Y91,1YKR,2A0C,2A4L,2B52,2B53,2B54,2B55,2BHE,2BHH,2BKZ,2BPM,2BTR,2BTS,2C4G,2C5N,2C5O,2C5V,2C5X,2C5Y,2C68,2C69,2C6I,2C6K,2C6L,2C6M,2C6O,2C6T,2CCH,2CCI,2CJM,2CLX,2DUV,2EXM,2FVD,2G9X,2I40,2J9M,2JGZ,2R3F,2R3G,2R3H,2R3I,2R3J,2R3K,2R3L,2R3M,2R3N,2R3O,2R3P,2R3Q,2R3R,2R64,2UUE,2UZB,2UZD,2UZE,2UZL,2UZN,2UZO,2V0D,2V22,2VTA,2VTH,2VTI,2VTJ,2VTL,2VTM,2VTN,2VTO,2VTP,2VTQ,2VTR,2VTS,2VTT,2VU3,2VV9,2W05,2W06,2W17,2W1H,2WEV,2WFY,2WHB,2WIH,2WIP,2WMA,2WMB,2WPA,2WXV,2X1N,2XMY,2XNB,3BHT,3BHU,3BHV,3DDP,3DDQ,3DOG,3EID,3EJ1,3EOC,3EZR,3EZV,3F5X,3FZ1,3IG7,3IGG,3LE6,3LFN,3LFQ,3LFS,3MY5,3NS9,3PJ8,3PXF,3PXQ,3PXR,3PXY,3PXZ,3PY0,3PY1,3QHR,3QHW,3QL8,3QQF,3QQG,3QQH,3QQJ,3QQK,3QQL,3QRT,3QRU,3QTQ,3QTR,3QTS,3QTU,3QTW,3QTX,3QTZ,3QU0,3QWJ,3QWK,3QX2,3QX4,3QXO,3QXP,3QZF,3QZG,3QZH,3QZI,3R1Q,3R1S,3R1Y,3R28,3R6X,3R71,3R73,3R7E,3R7I,3R7U,3R7V,3R7Y,3R83,3R8L,3R8M,3R8P,3R8U,3R8V,3R8Z,3R9D,3R9H,3R9N,3R9O,3RAH,3RAI,3RAK,3RAL,3RJC,3RK5,3RK7,3RK9,3RKB,3RM6,3RM7,3RMF,3RNI,3ROY,3RPO,3RPR,3RPV,3RPY,3RZB,3S00,3S0O,3S1H,3S2P,3SQQ,3SW4,3SW7,3TI1,3TIY,3TIZ,3TNW,3ULI,3UNJ,3UNK,3WBL,4ACM,4BCK,4BCM,4BCN,4BCO,4BCP,4BCQ,4BGH,4BZD,4CFM,4CFN,4CFU,4CFV,4CFW,4CFX,4D1X,4D1Z,4EK3,4EK4,4EK5,4EK6,4EK8,4EOQ,4EOR,4EOS,4ERW,4EZ3,4EZ7,4FKG,4FKI,4FKJ,4FKL,4FKO,4FKP,4FKQ,4FKR,4FKS,4FKT,4FKU,4FKV,4FKW,4FX3,4GCJ,4I3Z,4II5,4KD1,4LYN,4NJ3,4RJ3,5A14,5AND,5ANE,5ANG,5ANI,5ANJ,5ANK,5ANO,5CYI,5D1J,5FP5,5FP6,5IEV,5IEX,5IEY,5IF1,5JQ5,5JQ8,5K4J,5L2W,5LMK,5MHQ,5NEV,5OO0,5OSJ,5UQ1,5UQ2,5UQ3,6ATH,6GUB,6GUC,6GUE,6GUF,6GUH,6GUK,6GVA,6INL,6JGM,6OQI,6P3W,6Q3B,6Q3C,6Q3F,6Q48,6Q49,6Q4A,6Q4B,6Q4C,6Q4D,6Q4E,6Q4F,6Q4H,6Q4J,6Q4K,6RIJ,6SG4,7ACK,7B5L,7B5R,7B7S,7E34,7KJS,7M2F,7NVQ

> <UniProt (SwissProt) Recommended Name of Target Chain>
Cyclin-dependent kinase 2

> <UniProt (SwissProt) Entry Name of Target Chain>
CDK2_HUMAN

> <UniProt (SwissProt) Primary ID of Target Chain>
P24941

> <UniProt (SwissProt) Secondary ID(s) of Target Chain>
A8K7C6,O75100

> <UniProt (SwissProt) Alternative ID(s) of Target Chain>


> <UniProt (TrEMBL) Submitted Name of Target Chain>


> <UniProt (TrEMBL) Entry Name of Target Chain>


> <UniProt (TrEMBL) Primary ID of Target Chain>
A0A024RB77

> <UniProt (TrEMBL) Secondary ID(s) of Target Chain>


> <UniProt (TrEMBL) Alternative ID(s) of Target Chain>


$$$$
BindingDB_50249540_mol_1

Vconf v2.0 Academic SN VC001-00000579
 51 53  0  0  0  0  0  0  0  0999 V2000
   12.9670    2.8770    0.6310 C   0  0  0  0  0  0  0  0  0  0  0
   12.4090    2.4720   -0.5940 C   0  0  0  0  0  0  0  0  0  0  0
   13.0540    2.7820   -1.7450 N   0  0  0  0  0  0  0  0  0  0  0
   14.2250    3.4670   -1.7700 C   0  0  0  0  0  0  0  0  0  0  0
   14.7640    3.8630   -0.5930 N   0  0  0  0  0  0  0  0  0  0  0
   14.1730    3.5900    0.5950 C   0  0  0  0  0  0  0  0  0  0  0
   14.8800    3.7870   -2.9120 N   0  0  0  0  0  0  0  0  0  0  0
   14.5020    3.4900   -4.1840 C   0  0  0  0  0  0  0  0  0  0  0
   13.8810    2.2770   -4.5540 C   0  0  0  0  0  0  0  0  0  0  0
   13.5250    2.0250   -5.8930 C   0  0  0  0  0  0  0  0  0  0  0
   13.8140    2.9910   -6.8750 C   0  0  0  0  0  0  0  0  0  0  0
   14.4530    4.1970   -6.5300 C   0  0  0  0  0  0  0  0  0  0  0
   14.7950    4.4350   -5.1850 C   0  0  0  0  0  0  0  0  0  0  0
   12.8620    0.7600   -6.2430 C   0  0  0  0  0  0  0  0  0  0  0
   14.7550    5.1850   -7.5780 C   0  0  0  0  0  0  0  0  0  0  0
   11.2090    1.7500   -0.6780 C   0  0  0  0  0  0  0  0  0  0  0
   10.4740    1.3750    0.3810 N   0  0  0  0  0  0  0  0  0  0  0
    9.3720    0.6900    0.0460 C   0  0  0  0  0  0  0  0  0  0  0
    9.2470    0.5240   -1.3390 C   0  0  0  0  0  0  0  0  0  0  0
   10.5550    1.2590   -2.2040 S   0  0  0  0  0  0  0  0  0  0  0
    8.4750    0.2170    1.1100 C   0  0  0  0  0  0  0  0  0  0  0
    8.2320   -0.1330   -2.0520 C   0  0  0  0  0  0  0  0  0  0  0
    7.2650   -0.6880   -1.4850 O   0  0  0  0  0  0  0  0  0  0  0
    8.3170   -0.1700   -3.3990 N   0  0  0  0  0  0  0  0  0  0  0
    7.3510   -0.7910   -4.2380 C   0  0  1  0  0  0  0  0  0  0  0
    6.0170   -0.0190   -4.2400 C   0  0  0  0  0  0  0  0  0  0  0
    7.9180   -0.8590   -5.6640 C   0  0  0  0  0  0  0  0  0  0  0
    6.2120    1.3260   -4.6620 O   0  0  0  0  0  0  0  0  0  0  0
   12.5160    2.6640    1.5220 H   0  0  0  0  0  0  0  0  0  0  0
   14.6090    3.9020    1.4630 H   0  0  0  0  0  0  0  0  0  0  0
   15.6810    4.3220   -2.8090 H   0  0  0  0  0  0  0  0  0  0  0
   13.6880    1.5660   -3.8480 H   0  0  0  0  0  0  0  0  0  0  0
   13.5610    2.8150   -7.8490 H   0  0  0  0  0  0  0  0  0  0  0
   15.2600    5.3090   -4.9310 H   0  0  0  0  0  0  0  0  0  0  0
   12.6520    0.7070   -7.3120 H   0  0  0  0  0  0  0  0  0  0  0
   13.5070   -0.0770   -5.9710 H   0  0  0  0  0  0  0  0  0  0  0
   11.9210    0.6780   -5.6970 H   0  0  0  0  0  0  0  0  0  0  0
   15.2470    6.0650   -7.1610 H   0  0  0  0  0  0  0  0  0  0  0
   15.4130    4.7370   -8.3230 H   0  0  0  0  0  0  0  0  0  0  0
   13.8290    5.4990   -8.0620 H   0  0  0  0  0  0  0  0  0  0  0
    7.6160   -0.3260    0.7260 H   0  0  0  0  0  0  0  0  0  0  0
    9.0330   -0.4420    1.7760 H   0  0  0  0  0  0  0  0  0  0  0
    8.1180    1.0750    1.6800 H   0  0  0  0  0  0  0  0  0  0  0
    9.0860    0.2440   -3.8200 H   0  0  0  0  0  0  0  0  0  0  0
    7.1700   -1.8120   -3.8950 H   0  0  0  0  0  0  0  0  0  0  0
    5.3170   -0.5080   -4.9180 H   0  0  0  0  0  0  0  0  0  0  0
    5.5880   -0.0190   -3.2380 H   0  0  0  0  0  0  0  0  0  0  0
    7.1990   -1.3470   -6.3220 H   0  0  0  0  0  0  0  0  0  0  0
    8.1180    0.1480   -6.0340 H   0  0  0  0  0  0  0  0  0  0  0
    8.8450   -1.4320   -5.6620 H   0  0  0  0  0  0  0  0  0  0  0
    5.3950    1.8670   -4.6760 H   0  0  0  0  0  0  0  0  0  0  0
  1  2  2  0  0  0  0
  1  6  1  0  0  0  0
  1 29  1  0  0  0  0
  2  3  1  0  0  0  0
  2 16  1  0  0  0  0
  3  4  2  0  0  0  0
  4  5  1  0  0  0  0
  4  7  1  0  0  0  0
  5  6  2  0  0  0  0
  6 30  1  0  0  0  0
  7  8  1  0  0  0  0
  7 31  1  0  0  0  0
  8  9  2  0  0  0  0
  8 13  1  0  0  0  0
  9 10  1  0  0  0  0
  9 32  1  0  0  0  0
 10 11  2  0  0  0  0
 10 14  1  0  0  0  0
 11 12  1  0  0  0  0
 11 33  1  0  0  0  0
 12 13  2  0  0  0  0
 12 15  1  0  0  0  0
 13 34  1  0  0  0  0
 14 35  1  0  0  0  0
 14 36  1  0  0  0  0
 14 37  1  0  0  0  0
 15 38  1  0  0  0  0
 15 39  1  0  0  0  0
 15 40  1  0  0  0  0
 16 17  2  0  0  0  0
 16 20  1  0  0  0  0
 17 18  1  0  0  0  0
 18 19  2  0  0  0  0
 18 21  1  0  0  0  0
 19 20  1  0  0  0  0
 19 22  1  0  0  0  0
 21 41  1  0  0  0  0
 21 42  1  0  0  0  0
 21 43  1  0  0  0  0
 22 23  2  0  0  0  0
 22 24  1  0  0  0  0
 24 25  1  0  0  0  0
 24 44  1  0  0  0  0
 25 26  1  0  0  0  0
 25 27  1  1  0  0  0
 25 45  1  0  0  0  0
 26 28  1  0  0  0  0
 26 46  1  0  0  0  0
 26 47  1  0  0  0  0
 27 48  1  0  0  0  0
 27 49  1  0  0  0  0
 27 50  1  0  0  0  0
 28 51  1  0  0  0  0
M  END
> <From>
www.bindingDB.org

> <BindingDB Reactant_set_id>
50436564

> <Ligand InChI>
InChI=1S/C20H23N5O2S/c1-11-7-12(2)9-15(8-11)24-20-21-6-5-16(25-20)19-23-14(4)17(28-19)18(27)22-13(3)10-26/h5-9,13,26H,10H2,1-4H3,(H,22,27)(H,21,24,25)/t13-/m1/s1

> <Ligand InChI Key>
PEGXADGTBNRSGV-CYBMUJFWSA-N

> <BindingDB MonomerID>
50249540

> <BindingDB Ligand Name>
(R)-2-(2-(3,5-dimethylphenylamino)pyrimidin-4-yl)-N-(1-hydroxypropan-2-yl)-4-methylthiazole-5-carboxamide::CHEMBL473229

> <Target Name Assigned by Curator or DataSource>
Cyclin-dependent kinase 2

> <Target Source Organism According to Curator or DataSource>
Homo sapiens

> <Ki (nM)>
>3330

> <IC50 (nM)>


> <Kd (nM)>


> <EC50 (nM)>


> <kon (M-1-s-1)>


> <koff (s-1)>


> <pH>


> <Temp C>


> <Curation/DataSource>
ChEMBL

> <Article DOI>
10.1016/j.bmcl.2008.09.106

> <PMID>
18938080

> <PubChem AID>


> <Patent Number>


> <Authors>
Farmer, LJ; Bemis, G; Britt, SD; Cochran, J; Connors, M; Harrington, EM; Hoock, T; Markland, W; Nanthakumar, S; Taslimi, P; Ter Haar, E; Wang, J; Zhaveri, D; Salituro, FG

> <Institution>
Vertex Pharmaceuticals Inc

> <Link to Ligand in BindingDB>
http://www.bindingdb.org/bind/chemsearch/marvin/MolStructure.jsp?monomerid=50249540

> <Link to Ligand-Target Pair in BindingDB>
http://www.bindingdb.org/jsp/dbsearch/PrimarySearch_ki.jsp?energyterm=kJ/mole&tag=pol&polymerid=796&target=Cyclin-dependent+kinase+2&column=ki&startPg=0&Increment=50&submit=Search

> <Link to Ligand-Target Pair in BindingDB>
http://www.bindingdb.org/jsp/dbsearch/PrimarySearch_ki.jsp?energyterm=kJ/mole&tag=r21&monomerid=50249540&enzyme=Cyclin-dependent+kinase+2&column=ki&startPg=0&Increment=50&submit=Search

> <Ligand HET ID in PDB>


> <PDB ID(s) for Ligand-Target Complex>


> <PubChem CID>
44593475

> <PubChem SID>
104103807

> <ChEBI ID of Ligand>


> <ChEMBL ID of Ligand>
CHEMBL473229

> <DrugBank ID of Ligand>


> <IUPHAR_GRAC ID of Ligand>


> <KEGG ID of Ligand>


> <ZINC ID of Ligand>
ZINC40915059

> <Number of Protein Chains in Target (bigger than 1 implies a multichain complex)>
1

> <BindingDB Target Chain Sequence>
MENFQKVEKIGEGTYGVVYKARNKLTGEVVALKKIRLDTETEGVPSTAIREISLLKELNHPNIVKLLDVIHTENKLYLVFEFLHQDLKKFMDASALTGIPLPLIKSYLFQLLQGLAFCHSHRVLHRDLKPQNLLINTEGAIKLADFGLARAFGVPVRTYTHEVVTLWYRAPEILLGCKYYSTAVDIWSLGCIFAEMVTRRALFPGDSEIDQLFRIFRTLGTPDEVVWPGVTSMPDYKPSFPKWARQDFSKVVPPLDEDGRSLLSQMLHYDPNKRISAKAALAHPFFQDVTKPVPHLRL

> <PDB ID(s) of Target Chain>
1CKP,1DI8,1DM2,1E1V,1E1X,1E9H,1F5Q,1FIN,1FQ1,1FVT,1FVV,1G5S,1GIH,1GY3,1GZ8,1H00,1H01,1H07,1H08,1H0V,1H0W,1H1P,1H1Q,1H1R,1H1S,1H24,1H25,1H26,1H27,1H28,1HCK,1HCL,1JST,1JSU,1JSV,1JVP,1KE5,1KE6,1KE7,1KE8,1KE9,1OGU,1OI9,1OIQ,1OIR,1OIU,1OIY,1OKV,1OKW,1OL1,1OL2,1P2A,1P5E,1PF8,1PKD,1PW2,1PXI,1PXJ,1PXK,1PXL,1PXM,1PXN,1PXO,1PXP,1PYE,1QMZ,1R78,1URC,1URW,1V1K,1VYW,1VYZ,1W0X,1W8C,1W98,1WCC,1Y8Y,1Y91,1YKR,2A0C,2A4L,2B52,2B53,2B54,2B55,2BHE,2BHH,2BKZ,2BPM,2BTR,2BTS,2C4G,2C5N,2C5O,2C5V,2C5X,2C5Y,2C68,2C69,2C6I,2C6K,2C6L,2C6M,2C6O,2C6T,2CCH,2CCI,2CJM,2CLX,2DUV,2EXM,2FVD,2G9X,2I40,2J9M,2JGZ,2R3F,2R3G,2R3H,2R3I,2R3J,2R3K,2R3L,2R3M,2R3N,2R3O,2R3P,2R3Q,2R3R,2R64,2UUE,2UZB,2UZD,2UZE,2UZL,2UZN,2UZO,2V0D,2V22,2VTA,2VTH,2VTI,2VTJ,2VTL,2VTM,2VTN,2VTO,2VTP,2VTQ,2VTR,2VTS,2VTT,2VU3,2VV9,2W05,2W06,2W17,2W1H,2WEV,2WFY,2WHB,2WIH,2WIP,2WMA,2WMB,2WPA,2WXV,2X1N,2XMY,2XNB,3BHT,3BHU,3BHV,3DDP,3DDQ,3DOG,3EID,3EJ1,3EOC,3EZR,3EZV,3F5X,3FZ1,3IG7,3IGG,3LE6,3LFN,3LFQ,3LFS,3MY5,3NS9,3PJ8,3PXF,3PXQ,3PXR,3PXY,3PXZ,3PY0,3PY1,3QHR,3QHW,3QL8,3QQF,3QQG,3QQH,3QQJ,3QQK,3QQL,3QRT,3QRU,3QTQ,3QTR,3QTS,3QTU,3QTW,3QTX,3QTZ,3QU0,3QWJ,3QWK,3QX2,3QX4,3QXO,3QXP,3QZF,3QZG,3QZH,3QZI,3R1Q,3R1S,3R1Y,3R28,3R6X,3R71,3R73,3R7E,3R7I,3R7U,3R7V,3R7Y,3R83,3R8L,3R8M,3R8P,3R8U,3R8V,3R8Z,3R9D,3R9H,3R9N,3R9O,3RAH,3RAI,3RAK,3RAL,3RJC,3RK5,3RK7,3RK9,3RKB,3RM6,3RM7,3RMF,3RNI,3ROY,3RPO,3RPR,3RPV,3RPY,3RZB,3S00,3S0O,3S1H,3S2P,3SQQ,3SW4,3SW7,3TI1,3TIY,3TIZ,3TNW,3ULI,3UNJ,3UNK,3WBL,4ACM,4BCK,4BCM,4BCN,4BCO,4BCP,4BCQ,4BGH,4BZD,4CFM,4CFN,4CFU,4CFV,4CFW,4CFX,4D1X,4D1Z,4EK3,4EK4,4EK5,4EK6,4EK8,4EOQ,4EOR,4EOS,4ERW,4EZ3,4EZ7,4FKG,4FKI,4FKJ,4FKL,4FKO,4FKP,4FKQ,4FKR,4FKS,4FKT,4FKU,4FKV,4FKW,4FX3,4GCJ,4I3Z,4II5,4KD1,4LYN,4NJ3,4RJ3,5A14,5AND,5ANE,5ANG,5ANI,5ANJ,5ANK,5ANO,5CYI,5D1J,5FP5,5FP6,5IEV,5IEX,5IEY,5IF1,5JQ5,5JQ8,5K4J,5L2W,5LMK,5MHQ,5NEV,5OO0,5OSJ,5UQ1,5UQ2,5UQ3,6ATH,6GUB,6GUC,6GUE,6GUF,6GUH,6GUK,6GVA,6INL,6JGM,6OQI,6P3W,6Q3B,6Q3C,6Q3F,6Q48,6Q49,6Q4A,6Q4B,6Q4C,6Q4D,6Q4E,6Q4F,6Q4H,6Q4J,6Q4K,6RIJ,6SG4,7ACK,7B5L,7B5R,7B7S,7E34,7KJS,7M2F,7NVQ

> <UniProt (SwissProt) Recommended Name of Target Chain>
Cyclin-dependent kinase 2

> <UniProt (SwissProt) Entry Name of Target Chain>
CDK2_HUMAN

> <UniProt (SwissProt) Primary ID of Target Chain>
P24941

> <UniProt (SwissProt) Secondary ID(s) of Target Chain>
A8K7C6,O75100

> <UniProt (SwissProt) Alternative ID(s) of Target Chain>


> <UniProt (TrEMBL) Submitted Name of Target Chain>


> <UniProt (TrEMBL) Entry Name of Target Chain>


> <UniProt (TrEMBL) Primary ID of Target Chain>
A0A024RB77

> <UniProt (TrEMBL) Secondary ID(s) of Target Chain>


> <UniProt (TrEMBL) Alternative ID(s) of Target Chain>


$$$$
BindingDB_50275935_mol_1

Vconf v2.0 Academic SN VC001-00000579
 51 53  0  0  0  0  0  0  0  0999 V2000
   -1.3110  -20.5470    1.0710 C   0  0  0  0  0  0  0  0  0  0  0
   -1.1520  -21.7730    0.3980 C   0  0  0  0  0  0  0  0  0  0  0
    0.1220  -22.3810    0.3800 C   0  0  0  0  0  0  0  0  0  0  0
    1.2270  -21.7610    0.9910 C   0  0  0  0  0  0  0  0  0  0  0
    1.0500  -20.5270    1.6460 C   0  0  0  0  0  0  0  0  0  0  0
   -0.2170  -19.9150    1.6930 C   0  0  0  0  0  0  0  0  0  0  0
   -2.2560  -22.3310   -0.1670 N   0  0  0  0  0  0  0  0  0  0  0
   -2.3140  -22.9840   -1.3530 C   0  0  0  0  0  0  0  0  0  0  0
   -3.5120  -23.4600   -1.7670 N   0  0  0  0  0  0  0  0  0  0  0
   -3.6530  -24.1170   -2.9430 C   0  0  0  0  0  0  0  0  0  0  0
   -2.5430  -24.3220   -3.7720 C   0  0  0  0  0  0  0  0  0  0  0
   -1.3020  -23.8230   -3.3380 C   0  0  0  0  0  0  0  0  0  0  0
   -1.2330  -23.1730   -2.1510 N   0  0  0  0  0  0  0  0  0  0  0
   -0.1220  -23.9690   -4.0830 C   0  0  0  0  0  0  0  0  0  0  0
   -0.0470  -24.5870   -5.2720 N   0  0  0  0  0  0  0  0  0  0  0
    1.1900  -24.5960   -5.7870 C   0  0  0  0  0  0  0  0  0  0  0
    2.1180  -23.9550   -4.9580 C   0  0  0  0  0  0  0  0  0  0  0
    1.3870  -23.3460   -3.5100 S   0  0  0  0  0  0  0  0  0  0  0
    3.4920  -23.7610   -5.1670 C   0  0  0  0  0  0  0  0  0  0  0
   -0.4140  -18.6290    2.3800 C   0  0  0  0  0  0  0  0  0  0  0
    2.5470  -22.4100    0.9380 C   0  0  0  0  0  0  0  0  0  0  0
    1.4170  -25.2430   -7.0880 C   0  0  0  0  0  0  0  0  0  0  0
    4.0780  -24.1640   -6.1960 O   0  0  0  0  0  0  0  0  0  0  0
    4.1990  -23.1180   -4.2130 N   0  0  0  0  0  0  0  0  0  0  0
    5.5900  -22.8380   -4.3030 C   0  0  2  0  0  0  0  0  0  0  0
    6.0890  -22.3880   -2.9190 C   0  0  0  0  0  0  0  0  0  0  0
    5.8660  -21.7410   -5.3460 C   0  0  0  0  0  0  0  0  0  0  0
    5.3530  -21.2630   -2.4540 O   0  0  0  0  0  0  0  0  0  0  0
   -2.2310  -20.1040    1.1040 H   0  0  0  0  0  0  0  0  0  0  0
    0.2480  -23.2830   -0.0800 H   0  0  0  0  0  0  0  0  0  0  0
    1.8480  -20.0730    2.0940 H   0  0  0  0  0  0  0  0  0  0  0
   -3.0970  -22.2090    0.2990 H   0  0  0  0  0  0  0  0  0  0  0
   -4.5710  -24.4630   -3.2250 H   0  0  0  0  0  0  0  0  0  0  0
   -2.6400  -24.8170   -4.6600 H   0  0  0  0  0  0  0  0  0  0  0
    0.5200  -18.2650    2.8120 H   0  0  0  0  0  0  0  0  0  0  0
   -0.7820  -17.8880    1.6690 H   0  0  0  0  0  0  0  0  0  0  0
   -1.1450  -18.7500    3.1800 H   0  0  0  0  0  0  0  0  0  0  0
    3.3010  -21.8130    1.4530 H   0  0  0  0  0  0  0  0  0  0  0
    2.4910  -23.3900    1.4130 H   0  0  0  0  0  0  0  0  0  0  0
    2.8500  -22.5340   -0.1030 H   0  0  0  0  0  0  0  0  0  0  0
    2.4560  -25.2000   -7.4020 H   0  0  0  0  0  0  0  0  0  0  0
    1.1170  -26.2890   -7.0200 H   0  0  0  0  0  0  0  0  0  0  0
    0.8040  -24.7480   -7.8410 H   0  0  0  0  0  0  0  0  0  0  0
    3.7350  -22.8360   -3.4090 H   0  0  0  0  0  0  0  0  0  0  0
    6.1330  -23.7430   -4.5820 H   0  0  0  0  0  0  0  0  0  0  0
    5.9700  -23.2070   -2.2090 H   0  0  0  0  0  0  0  0  0  0  0
    7.1460  -22.1260   -2.9800 H   0  0  0  0  0  0  0  0  0  0  0
    6.9320  -21.5140   -5.3640 H   0  0  0  0  0  0  0  0  0  0  0
    5.5610  -22.0820   -6.3350 H   0  0  0  0  0  0  0  0  0  0  0
    5.3110  -20.8380   -5.0900 H   0  0  0  0  0  0  0  0  0  0  0
    5.6360  -20.9280   -1.5780 H   0  0  0  0  0  0  0  0  0  0  0
  1  2  2  0  0  0  0
  1  6  1  0  0  0  0
  1 29  1  0  0  0  0
  2  3  1  0  0  0  0
  2  7  1  0  0  0  0
  3  4  2  0  0  0  0
  3 30  1  0  0  0  0
  4  5  1  0  0  0  0
  4 21  1  0  0  0  0
  5  6  2  0  0  0  0
  5 31  1  0  0  0  0
  6 20  1  0  0  0  0
  7  8  1  0  0  0  0
  7 32  1  0  0  0  0
  8  9  2  0  0  0  0
  8 13  1  0  0  0  0
  9 10  1  0  0  0  0
 10 11  2  0  0  0  0
 10 33  1  0  0  0  0
 11 12  1  0  0  0  0
 11 34  1  0  0  0  0
 12 13  2  0  0  0  0
 12 14  1  0  0  0  0
 14 15  2  0  0  0  0
 14 18  1  0  0  0  0
 15 16  1  0  0  0  0
 16 17  2  0  0  0  0
 16 22  1  0  0  0  0
 17 18  1  0  0  0  0
 17 19  1  0  0  0  0
 19 23  2  0  0  0  0
 19 24  1  0  0  0  0
 20 35  1  0  0  0  0
 20 36  1  0  0  0  0
 20 37  1  0  0  0  0
 21 38  1  0  0  0  0
 21 39  1  0  0  0  0
 21 40  1  0  0  0  0
 22 41  1  0  0  0  0
 22 42  1  0  0  0  0
 22 43  1  0  0  0  0
 24 25  1  0  0  0  0
 24 44  1  0  0  0  0
 25 26  1  0  0  0  0
 25 27  1  1  0  0  0
 25 45  1  0  0  0  0
 26 28  1  0  0  0  0
 26 46  1  0  0  0  0
 26 47  1  0  0  0  0
 27 48  1  0  0  0  0
 27 49  1  0  0  0  0
 27 50  1  0  0  0  0
 28 51  1  0  0  0  0
M  END
> <From>
www.bindingDB.org

> <BindingDB Reactant_set_id>
50436565

> <Ligand InChI>
InChI=1S/C20H23N5O2S/c1-11-7-12(2)9-15(8-11)24-20-21-6-5-16(25-20)19-23-14(4)17(28-19)18(27)22-13(3)10-26/h5-9,13,26H,10H2,1-4H3,(H,22,27)(H,21,24,25)/t13-/m0/s1

> <Ligand InChI Key>
PEGXADGTBNRSGV-ZDUSSCGKSA-N

> <BindingDB MonomerID>
50275935

> <BindingDB Ligand Name>
(S)-2-(2-(3,5-dimethylphenylamino)pyrimidin-4-yl)-N-(1-hydroxypropan-2-yl)-4-methylthiazole-5-carboxamide::2-{2-[(3,5-dimethylphenyl)amino]pyrimidin-4-yl}-N-[(1S)-2-hydroxy-1-methylethyl]-4-methyl-1,3-thiazole-5-carboxamide::CHEMBL512172

> <Target Name Assigned by Curator or DataSource>
Cyclin-dependent kinase 2

> <Target Source Organism According to Curator or DataSource>
Homo sapiens

> <Ki (nM)>
>3330

> <IC50 (nM)>


> <Kd (nM)>


> <EC50 (nM)>


> <kon (M-1-s-1)>


> <koff (s-1)>


> <pH>


> <Temp C>


> <Curation/DataSource>
ChEMBL

> <Article DOI>
10.1016/j.bmcl.2008.09.106

> <PMID>
18938080

> <PubChem AID>


> <Patent Number>


> <Authors>
Farmer, LJ; Bemis, G; Britt, SD; Cochran, J; Connors, M; Harrington, EM; Hoock, T; Markland, W; Nanthakumar, S; Taslimi, P; Ter Haar, E; Wang, J; Zhaveri, D; Salituro, FG

> <Institution>
Vertex Pharmaceuticals Inc

> <Link to Ligand in BindingDB>
http://www.bindingdb.org/bind/chemsearch/marvin/MolStructure.jsp?monomerid=50275935

> <Link to Ligand-Target Pair in BindingDB>
http://www.bindingdb.org/jsp/dbsearch/PrimarySearch_ki.jsp?energyterm=kJ/mole&tag=pol&polymerid=796&target=Cyclin-dependent+kinase+2&column=ki&startPg=0&Increment=50&submit=Search

> <Link to Ligand-Target Pair in BindingDB>
http://www.bindingdb.org/jsp/dbsearch/PrimarySearch_ki.jsp?energyterm=kJ/mole&tag=r21&monomerid=50275935&enzyme=Cyclin-dependent+kinase+2&column=ki&startPg=0&Increment=50&submit=Search

> <Ligand HET ID in PDB>
685

> <PDB ID(s) for Ligand-Target Complex>
3EMG

> <PubChem CID>
25113172

> <PubChem SID>
104119294

> <ChEBI ID of Ligand>


> <ChEMBL ID of Ligand>
CHEMBL512172

> <DrugBank ID of Ligand>
DB07194

> <IUPHAR_GRAC ID of Ligand>


> <KEGG ID of Ligand>


> <ZINC ID of Ligand>
ZINC39194443

> <Number of Protein Chains in Target (bigger than 1 implies a multichain complex)>
1

> <BindingDB Target Chain Sequence>
MENFQKVEKIGEGTYGVVYKARNKLTGEVVALKKIRLDTETEGVPSTAIREISLLKELNHPNIVKLLDVIHTENKLYLVFEFLHQDLKKFMDASALTGIPLPLIKSYLFQLLQGLAFCHSHRVLHRDLKPQNLLINTEGAIKLADFGLARAFGVPVRTYTHEVVTLWYRAPEILLGCKYYSTAVDIWSLGCIFAEMVTRRALFPGDSEIDQLFRIFRTLGTPDEVVWPGVTSMPDYKPSFPKWARQDFSKVVPPLDEDGRSLLSQMLHYDPNKRISAKAALAHPFFQDVTKPVPHLRL

> <PDB ID(s) of Target Chain>
1CKP,1DI8,1DM2,1E1V,1E1X,1E9H,1F5Q,1FIN,1FQ1,1FVT,1FVV,1G5S,1GIH,1GY3,1GZ8,1H00,1H01,1H07,1H08,1H0V,1H0W,1H1P,1H1Q,1H1R,1H1S,1H24,1H25,1H26,1H27,1H28,1HCK,1HCL,1JST,1JSU,1JSV,1JVP,1KE5,1KE6,1KE7,1KE8,1KE9,1OGU,1OI9,1OIQ,1OIR,1OIU,1OIY,1OKV,1OKW,1OL1,1OL2,1P2A,1P5E,1PF8,1PKD,1PW2,1PXI,1PXJ,1PXK,1PXL,1PXM,1PXN,1PXO,1PXP,1PYE,1QMZ,1R78,1URC,1URW,1V1K,1VYW,1VYZ,1W0X,1W8C,1W98,1WCC,1Y8Y,1Y91,1YKR,2A0C,2A4L,2B52,2B53,2B54,2B55,2BHE,2BHH,2BKZ,2BPM,2BTR,2BTS,2C4G,2C5N,2C5O,2C5V,2C5X,2C5Y,2C68,2C69,2C6I,2C6K,2C6L,2C6M,2C6O,2C6T,2CCH,2CCI,2CJM,2CLX,2DUV,2EXM,2FVD,2G9X,2I40,2J9M,2JGZ,2R3F,2R3G,2R3H,2R3I,2R3J,2R3K,2R3L,2R3M,2R3N,2R3O,2R3P,2R3Q,2R3R,2R64,2UUE,2UZB,2UZD,2UZE,2UZL,2UZN,2UZO,2V0D,2V22,2VTA,2VTH,2VTI,2VTJ,2VTL,2VTM,2VTN,2VTO,2VTP,2VTQ,2VTR,2VTS,2VTT,2VU3,2VV9,2W05,2W06,2W17,2W1H,2WEV,2WFY,2WHB,2WIH,2WIP,2WMA,2WMB,2WPA,2WXV,2X1N,2XMY,2XNB,3BHT,3BHU,3BHV,3DDP,3DDQ,3DOG,3EID,3EJ1,3EOC,3EZR,3EZV,3F5X,3FZ1,3IG7,3IGG,3LE6,3LFN,3LFQ,3LFS,3MY5,3NS9,3PJ8,3PXF,3PXQ,3PXR,3PXY,3PXZ,3PY0,3PY1,3QHR,3QHW,3QL8,3QQF,3QQG,3QQH,3QQJ,3QQK,3QQL,3QRT,3QRU,3QTQ,3QTR,3QTS,3QTU,3QTW,3QTX,3QTZ,3QU0,3QWJ,3QWK,3QX2,3QX4,3QXO,3QXP,3QZF,3QZG,3QZH,3QZI,3R1Q,3R1S,3R1Y,3R28,3R6X,3R71,3R73,3R7E,3R7I,3R7U,3R7V,3R7Y,3R83,3R8L,3R8M,3R8P,3R8U,3R8V,3R8Z,3R9D,3R9H,3R9N,3R9O,3RAH,3RAI,3RAK,3RAL,3RJC,3RK5,3RK7,3RK9,3RKB,3RM6,3RM7,3RMF,3RNI,3ROY,3RPO,3RPR,3RPV,3RPY,3RZB,3S00,3S0O,3S1H,3S2P,3SQQ,3SW4,3SW7,3TI1,3TIY,3TIZ,3TNW,3ULI,3UNJ,3UNK,3WBL,4ACM,4BCK,4BCM,4BCN,4BCO,4BCP,4BCQ,4BGH,4BZD,4CFM,4CFN,4CFU,4CFV,4CFW,4CFX,4D1X,4D1Z,4EK3,4EK4,4EK5,4EK6,4EK8,4EOQ,4EOR,4EOS,4ERW,4EZ3,4EZ7,4FKG,4FKI,4FKJ,4FKL,4FKO,4FKP,4FKQ,4FKR,4FKS,4FKT,4FKU,4FKV,4FKW,4FX3,4GCJ,4I3Z,4II5,4KD1,4LYN,4NJ3,4RJ3,5A14,5AND,5ANE,5ANG,5ANI,5ANJ,5ANK,5ANO,5CYI,5D1J,5FP5,5FP6,5IEV,5IEX,5IEY,5IF1,5JQ5,5JQ8,5K4J,5L2W,5LMK,5MHQ,5NEV,5OO0,5OSJ,5UQ1,5UQ2,5UQ3,6ATH,6GUB,6GUC,6GUE,6GUF,6GUH,6GUK,6GVA,6INL,6JGM,6OQI,6P3W,6Q3B,6Q3C,6Q3F,6Q48,6Q49,6Q4A,6Q4B,6Q4C,6Q4D,6Q4E,6Q4F,6Q4H,6Q4J,6Q4K,6RIJ,6SG4,7ACK,7B5L,7B5R,7B7S,7E34,7KJS,7M2F,7NVQ

> <UniProt (SwissProt) Recommended Name of Target Chain>
Cyclin-dependent kinase 2

> <UniProt (SwissProt) Entry Name of Target Chain>
CDK2_HUMAN

> <UniProt (SwissProt) Primary ID of Target Chain>
P24941

> <UniProt (SwissProt) Secondary ID(s) of Target Chain>
A8K7C6,O75100

> <UniProt (SwissProt) Alternative ID(s) of Target Chain>


> <UniProt (TrEMBL) Submitted Name of Target Chain>


> <UniProt (TrEMBL) Entry Name of Target Chain>


> <UniProt (TrEMBL) Primary ID of Target Chain>
A0A024RB77

> <UniProt (TrEMBL) Secondary ID(s) of Target Chain>


> <UniProt (TrEMBL) Alternative ID(s) of Target Chain>


$$$$
BindingDB_50319626_mol_1

Vconf v2.0 Academic SN VC001-00000579
 54 57  0  0  0  0  0  0  0  0999 V2000
   -2.5360  -29.6750    0.6850 C   0  0  0  0  0  0  0  0  0  0  0
   -2.4110  -31.0710    0.7260 C   0  0  0  0  0  0  0  0  0  0  0
   -1.1910  -31.6490    0.6250 N   0  0  0  0  0  0  0  0  0  0  0
   -0.0660  -30.9100    0.4840 C   0  0  0  0  0  0  0  0  0  0  0
   -0.1800  -29.5600    0.4440 N   0  0  0  0  0  0  0  0  0  0  0
   -1.3660  -28.9090    0.5380 C   0  0  0  0  0  0  0  0  0  0  0
    1.1300  -31.5340    0.3920 N   0  0  0  0  0  0  0  0  0  0  0
    2.2990  -30.8670    0.2640 C   0  0  0  0  0  0  0  0  0  0  0
    3.0430  -30.5250    1.4080 C   0  0  0  0  0  0  0  0  0  0  0
    4.2350  -29.7910    1.2810 C   0  0  0  0  0  0  0  0  0  0  0
    4.6950  -29.3950    0.0100 C   0  0  0  0  0  0  0  0  0  0  0
    3.9560  -29.7530   -1.1340 C   0  0  0  0  0  0  0  0  0  0  0
    2.7640  -30.4870   -1.0090 C   0  0  0  0  0  0  0  0  0  0  0
   -1.4160  -27.5010    0.4900 C   0  0  0  0  0  0  0  0  0  0  0
   -2.9200  -26.6480    0.6170 S   0  0  0  0  0  0  0  0  0  0  0
   -2.0150  -25.1810    0.4680 C   0  0  0  0  0  0  0  0  0  0  0
   -0.6920  -25.3410    0.3350 N   0  0  0  0  0  0  0  0  0  0  0
   -0.3290  -26.6310    0.3440 C   0  0  0  0  0  0  0  0  0  0  0
    1.0820  -27.0150    0.2100 C   0  0  0  0  0  0  0  0  0  0  0
    5.8370  -28.6680   -0.1080 N   0  0  0  0  0  0  0  0  0  0  0
    7.0950  -29.1710    0.3460 C   0  0  0  0  0  0  0  0  0  0  0
    8.0880  -29.1800   -0.8280 C   0  0  0  0  0  0  0  0  0  0  0
    8.0790  -27.9070   -1.4580 N   0  0  0  0  0  0  0  0  0  0  0
    6.8340  -27.3880   -1.9030 C   0  0  0  0  0  0  0  0  0  0  0
    5.8450  -27.3790   -0.7260 C   0  0  0  0  0  0  0  0  0  0  0
   -2.6550  -23.8680    0.4890 C   0  0  0  0  0  0  0  0  0  0  0
    9.4830  -26.9800   -1.5580 S   0  0  0  0  0  0  0  0  0  0  0
    9.4240  -26.0350   -0.0290 C   0  0  0  0  0  0  0  0  0  0  0
   10.7550  -27.9190   -1.3930 O   0  0  0  0  0  0  0  0  0  0  0
    9.3120  -25.8880   -2.7020 O   0  0  0  0  0  0  0  0  0  0  0
   -3.4570  -29.2410    0.7620 H   0  0  0  0  0  0  0  0  0  0  0
   -3.2420  -31.6540    0.8320 H   0  0  0  0  0  0  0  0  0  0  0
    1.1490  -32.5020    0.4330 H   0  0  0  0  0  0  0  0  0  0  0
    2.7120  -30.7950    2.3350 H   0  0  0  0  0  0  0  0  0  0  0
    4.7620  -29.5370    2.1170 H   0  0  0  0  0  0  0  0  0  0  0
    4.2820  -29.4750   -2.0610 H   0  0  0  0  0  0  0  0  0  0  0
    2.2290  -30.7310   -1.8440 H   0  0  0  0  0  0  0  0  0  0  0
    1.7030  -26.1240    0.1120 H   0  0  0  0  0  0  0  0  0  0  0
    1.4010  -27.5710    1.0930 H   0  0  0  0  0  0  0  0  0  0  0
    1.2150  -27.6350   -0.6770 H   0  0  0  0  0  0  0  0  0  0  0
    7.0130  -30.1840    0.7470 H   0  0  0  0  0  0  0  0  0  0  0
    7.4770  -28.5150    1.1300 H   0  0  0  0  0  0  0  0  0  0  0
    9.0840  -29.4190   -0.4560 H   0  0  0  0  0  0  0  0  0  0  0
    7.7860  -29.9400   -1.5500 H   0  0  0  0  0  0  0  0  0  0  0
    6.9520  -26.3730   -2.2820 H   0  0  0  0  0  0  0  0  0  0  0
    6.4430  -28.0230   -2.6990 H   0  0  0  0  0  0  0  0  0  0  0
    4.8570  -27.0890   -1.0890 H   0  0  0  0  0  0  0  0  0  0  0
    6.1740  -26.6400    0.0060 H   0  0  0  0  0  0  0  0  0  0  0
   -1.9060  -23.0830    0.3760 H   0  0  0  0  0  0  0  0  0  0  0
   -3.3720  -23.8020   -0.3290 H   0  0  0  0  0  0  0  0  0  0  0
   -3.1760  -23.7350    1.4380 H   0  0  0  0  0  0  0  0  0  0  0
   10.3020  -25.3940    0.0330 H   0  0  0  0  0  0  0  0  0  0  0
    8.5230  -25.4220   -0.0180 H   0  0  0  0  0  0  0  0  0  0  0
    9.4100  -26.7190    0.8180 H   0  0  0  0  0  0  0  0  0  0  0
  1  2  1  0  0  0  0
  1  6  2  0  0  0  0
  1 31  1  0  0  0  0
  2  3  2  0  0  0  0
  2 32  1  0  0  0  0
  3  4  1  0  0  0  0
  4  5  2  0  0  0  0
  4  7  1  0  0  0  0
  5  6  1  0  0  0  0
  6 14  1  0  0  0  0
  7  8  1  0  0  0  0
  7 33  1  0  0  0  0
  8  9  2  0  0  0  0
  8 13  1  0  0  0  0
  9 10  1  0  0  0  0
  9 34  1  0  0  0  0
 10 11  2  0  0  0  0
 10 35  1  0  0  0  0
 11 12  1  0  0  0  0
 11 20  1  0  0  0  0
 12 13  2  0  0  0  0
 12 36  1  0  0  0  0
 13 37  1  0  0  0  0
 14 15  1  0  0  0  0
 14 18  2  0  0  0  0
 15 16  1  0  0  0  0
 16 17  2  0  0  0  0
 16 26  1  0  0  0  0
 17 18  1  0  0  0  0
 18 19  1  0  0  0  0
 19 38  1  0  0  0  0
 19 39  1  0  0  0  0
 19 40  1  0  0  0  0
 20 21  1  0  0  0  0
 20 25  1  0  0  0  0
 21 22  1  0  0  0  0
 21 41  1  0  0  0  0
 21 42  1  0  0  0  0
 22 23  1  0  0  0  0
 22 43  1  0  0  0  0
 22 44  1  0  0  0  0
 23 24  1  0  0  0  0
 23 27  1  0  0  0  0
 24 25  1  0  0  0  0
 24 45  1  0  0  0  0
 24 46  1  0  0  0  0
 25 47  1  0  0  0  0
 25 48  1  0  0  0  0
 26 49  1  0  0  0  0
 26 50  1  0  0  0  0
 26 51  1  0  0  0  0
 27 28  1  0  0  0  0
 27 29  2  0  0  0  0
 27 30  2  0  0  0  0
 28 52  1  0  0  0  0
 28 53  1  0  0  0  0
 28 54  1  0  0  0  0
M  END
> <From>
www.bindingDB.org

> <BindingDB Reactant_set_id>
50579966

> <Ligand InChI>
InChI=1S/C20H24N6O2S2/c1-14-19(29-15(2)22-14)18-8-9-21-20(24-18)23-16-4-6-17(7-5-16)25-10-12-26(13-11-25)30(3,27)28/h4-9H,10-13H2,1-3H3,(H,21,23,24)

> <Ligand InChI Key>
ZINARMLOUXQARO-UHFFFAOYSA-N

> <BindingDB MonomerID>
50319626

> <BindingDB Ligand Name>
4-(2,4-Dimethylthiazol-5-yl)-N-(4-(4-(methylsulfonyl)piperazin-1-yl)phenyl)pyrimidin-2-amine::CHEMBL1083484

> <Target Name Assigned by Curator or DataSource>
Cyclin-dependent kinase 2

> <Target Source Organism According to Curator or DataSource>
Homo sapiens

> <Ki (nM)>
 3967

> <IC50 (nM)>


> <Kd (nM)>


> <EC50 (nM)>


> <kon (M-1-s-1)>


> <koff (s-1)>


> <pH>


> <Temp C>


> <Curation/DataSource>
ChEMBL

> <Article DOI>
10.1021/jm901913s

> <PMID>
20462263

> <PubChem AID>


> <Patent Number>


> <Authors>
Wang, S; Midgley, CA; Scaerou, F; Grabarek, JB; Griffiths, G; Jackson, W; Kontopidis, G; McClue, SJ; McInnes, C; Meades, C; Mezna, M; Plater, A; Stuart, I; Thomas, MP; Wood, G; Clarke, RG; Blake, DG; Zheleva, DI; Lane, DP; Jackson, RC; Glover, DM; Fischer, PM

> <Institution>
Cyclacel Ltd

> <Link to Ligand in BindingDB>
http://www.bindingdb.org/bind/chemsearch/marvin/MolStructure.jsp?monomerid=50319626

> <Link to Ligand-Target Pair in BindingDB>
http://www.bindingdb.org/jsp/dbsearch/PrimarySearch_ki.jsp?energyterm=kJ/mole&tag=pol&polymerid=796&target=Cyclin-dependent+kinase+2&column=ki&startPg=0&Increment=50&submit=Search

> <Link to Ligand-Target Pair in BindingDB>
http://www.bindingdb.org/jsp/dbsearch/PrimarySearch_ki.jsp?energyterm=kJ/mole&tag=r21&monomerid=50319626&enzyme=Cyclin-dependent+kinase+2&column=ki&startPg=0&Increment=50&submit=Search

> <Ligand HET ID in PDB>


> <PDB ID(s) for Ligand-Target Complex>


> <PubChem CID>
11744184

> <PubChem SID>
104153987

> <ChEBI ID of Ligand>


> <ChEMBL ID of Ligand>
CHEMBL1083484

> <DrugBank ID of Ligand>


> <IUPHAR_GRAC ID of Ligand>


> <KEGG ID of Ligand>


> <ZINC ID of Ligand>
ZINC36403407

> <Number of Protein Chains in Target (bigger than 1 implies a multichain complex)>
1

> <BindingDB Target Chain Sequence>
MENFQKVEKIGEGTYGVVYKARNKLTGEVVALKKIRLDTETEGVPSTAIREISLLKELNHPNIVKLLDVIHTENKLYLVFEFLHQDLKKFMDASALTGIPLPLIKSYLFQLLQGLAFCHSHRVLHRDLKPQNLLINTEGAIKLADFGLARAFGVPVRTYTHEVVTLWYRAPEILLGCKYYSTAVDIWSLGCIFAEMVTRRALFPGDSEIDQLFRIFRTLGTPDEVVWPGVTSMPDYKPSFPKWARQDFSKVVPPLDEDGRSLLSQMLHYDPNKRISAKAALAHPFFQDVTKPVPHLRL

> <PDB ID(s) of Target Chain>
1CKP,1DI8,1DM2,1E1V,1E1X,1E9H,1F5Q,1FIN,1FQ1,1FVT,1FVV,1G5S,1GIH,1GY3,1GZ8,1H00,1H01,1H07,1H08,1H0V,1H0W,1H1P,1H1Q,1H1R,1H1S,1H24,1H25,1H26,1H27,1H28,1HCK,1HCL,1JST,1JSU,1JSV,1JVP,1KE5,1KE6,1KE7,1KE8,1KE9,1OGU,1OI9,1OIQ,1OIR,1OIU,1OIY,1OKV,1OKW,1OL1,1OL2,1P2A,1P5E,1PF8,1PKD,1PW2,1PXI,1PXJ,1PXK,1PXL,1PXM,1PXN,1PXO,1PXP,1PYE,1QMZ,1R78,1URC,1URW,1V1K,1VYW,1VYZ,1W0X,1W8C,1W98,1WCC,1Y8Y,1Y91,1YKR,2A0C,2A4L,2B52,2B53,2B54,2B55,2BHE,2BHH,2BKZ,2BPM,2BTR,2BTS,2C4G,2C5N,2C5O,2C5V,2C5X,2C5Y,2C68,2C69,2C6I,2C6K,2C6L,2C6M,2C6O,2C6T,2CCH,2CCI,2CJM,2CLX,2DUV,2EXM,2FVD,2G9X,2I40,2J9M,2JGZ,2R3F,2R3G,2R3H,2R3I,2R3J,2R3K,2R3L,2R3M,2R3N,2R3O,2R3P,2R3Q,2R3R,2R64,2UUE,2UZB,2UZD,2UZE,2UZL,2UZN,2UZO,2V0D,2V22,2VTA,2VTH,2VTI,2VTJ,2VTL,2VTM,2VTN,2VTO,2VTP,2VTQ,2VTR,2VTS,2VTT,2VU3,2VV9,2W05,2W06,2W17,2W1H,2WEV,2WFY,2WHB,2WIH,2WIP,2WMA,2WMB,2WPA,2WXV,2X1N,2XMY,2XNB,3BHT,3BHU,3BHV,3DDP,3DDQ,3DOG,3EID,3EJ1,3EOC,3EZR,3EZV,3F5X,3FZ1,3IG7,3IGG,3LE6,3LFN,3LFQ,3LFS,3MY5,3NS9,3PJ8,3PXF,3PXQ,3PXR,3PXY,3PXZ,3PY0,3PY1,3QHR,3QHW,3QL8,3QQF,3QQG,3QQH,3QQJ,3QQK,3QQL,3QRT,3QRU,3QTQ,3QTR,3QTS,3QTU,3QTW,3QTX,3QTZ,3QU0,3QWJ,3QWK,3QX2,3QX4,3QXO,3QXP,3QZF,3QZG,3QZH,3QZI,3R1Q,3R1S,3R1Y,3R28,3R6X,3R71,3R73,3R7E,3R7I,3R7U,3R7V,3R7Y,3R83,3R8L,3R8M,3R8P,3R8U,3R8V,3R8Z,3R9D,3R9H,3R9N,3R9O,3RAH,3RAI,3RAK,3RAL,3RJC,3RK5,3RK7,3RK9,3RKB,3RM6,3RM7,3RMF,3RNI,3ROY,3RPO,3RPR,3RPV,3RPY,3RZB,3S00,3S0O,3S1H,3S2P,3SQQ,3SW4,3SW7,3TI1,3TIY,3TIZ,3TNW,3ULI,3UNJ,3UNK,3WBL,4ACM,4BCK,4BCM,4BCN,4BCO,4BCP,4BCQ,4BGH,4BZD,4CFM,4CFN,4CFU,4CFV,4CFW,4CFX,4D1X,4D1Z,4EK3,4EK4,4EK5,4EK6,4EK8,4EOQ,4EOR,4EOS,4ERW,4EZ3,4EZ7,4FKG,4FKI,4FKJ,4FKL,4FKO,4FKP,4FKQ,4FKR,4FKS,4FKT,4FKU,4FKV,4FKW,4FX3,4GCJ,4I3Z,4II5,4KD1,4LYN,4NJ3,4RJ3,5A14,5AND,5ANE,5ANG,5ANI,5ANJ,5ANK,5ANO,5CYI,5D1J,5FP5,5FP6,5IEV,5IEX,5IEY,5IF1,5JQ5,5JQ8,5K4J,5L2W,5LMK,5MHQ,5NEV,5OO0,5OSJ,5UQ1,5UQ2,5UQ3,6ATH,6GUB,6GUC,6GUE,6GUF,6GUH,6GUK,6GVA,6INL,6JGM,6OQI,6P3W,6Q3B,6Q3C,6Q3F,6Q48,6Q49,6Q4A,6Q4B,6Q4C,6Q4D,6Q4E,6Q4F,6Q4H,6Q4J,6Q4K,6RIJ,6SG4,7ACK,7B5L,7B5R,7B7S,7E34,7KJS,7M2F,7NVQ

> <UniProt (SwissProt) Recommended Name of Target Chain>
Cyclin-dependent kinase 2

> <UniProt (SwissProt) Entry Name of Target Chain>
CDK2_HUMAN

> <UniProt (SwissProt) Primary ID of Target Chain>
P24941

> <UniProt (SwissProt) Secondary ID(s) of Target Chain>
A8K7C6,O75100

> <UniProt (SwissProt) Alternative ID(s) of Target Chain>


> <UniProt (TrEMBL) Submitted Name of Target Chain>


> <UniProt (TrEMBL) Entry Name of Target Chain>


> <UniProt (TrEMBL) Primary ID of Target Chain>
A0A024RB77

> <UniProt (TrEMBL) Secondary ID(s) of Target Chain>


> <UniProt (TrEMBL) Alternative ID(s) of Target Chain>


$$$$
ttt_mol_1

Vconf v2.1
 50 54  0  0  0  0  0  0  0  0999 V2000
    0.4660    4.8400    0.0710 C   0  0  0  0  0  0  0  0  0  0  0
    1.0820    6.1040    0.1860 C   0  0  0  0  0  0  0  0  0  0  0
    2.4190    6.2020    0.4270 N   0  0  0  0  0  0  0  0  0  0  0
    1.2490    3.6770    0.2080 C   0  0  0  0  0  0  0  0  0  0  0
    2.6270    3.8140    0.4530 C   0  0  0  0  0  0  0  0  0  0  0
    3.1790    5.0890    0.5590 C   0  0  0  0  0  0  0  0  0  0  0
    4.4920    4.9720    0.7950 N   0  0  0  0  0  0  0  0  0  0  0
    4.8070    3.6660    0.8430 C   0  0  0  0  0  0  0  0  0  0  0
    3.6610    2.8930    0.6320 C   0  0  0  0  0  0  0  0  0  0  0
    3.6010    1.4870    0.6060 C   0  0  0  0  0  0  0  0  0  0  0
    2.4310    0.8430    0.3800 N   0  0  0  0  0  0  0  0  0  0  0
    2.3290   -0.5080    0.3400 C   0  0  0  0  0  0  0  0  0  0  0
    3.4760   -1.2920    0.5470 C   0  0  0  0  0  0  0  0  0  0  0
    4.6830   -0.6180    0.7820 C   0  0  0  0  0  0  0  0  0  0  0
    4.7140    0.7370    0.8030 N   0  0  0  0  0  0  0  0  0  0  0
    3.4350   -2.5960    0.5250 F   0  0  0  0  0  0  0  0  0  0  0
    1.1310   -1.0910    0.1110 N   0  0  0  0  0  0  0  0  0  0  0
   -0.0720   -0.3620   -0.1130 C   0  0  1  0  0  0  0  0  0  0  0
   -0.0690    0.3510   -1.4870 C   0  0  2  0  0  0  0  0  0  0  0
   -1.3620    1.1830   -1.5970 C   0  0  0  0  0  0  0  0  0  0  0
   -2.5980    0.2630   -1.5190 C   0  0  0  0  0  0  0  0  0  0  0
   -1.2870   -1.3200   -0.0350 C   0  0  1  0  0  0  0  0  0  0  0
   -0.8130    4.7460   -0.1600 F   0  0  0  0  0  0  0  0  0  0  0
   -2.2550   -0.9850    1.4500 S   0  0  0  0  0  0  0  0  0  0  0
   -1.2250   -1.3980    2.7080 N   0  0  0  0  0  0  0  0  0  0  0
   -2.4610    0.5830    1.6090 O   0  0  0  0  0  0  0  0  0  0  0
   -3.3980   -2.0890    1.4810 O   0  0  0  0  0  0  0  0  0  0  0
   -0.0600   -0.6980   -2.6190 C   0  0  0  0  0  0  0  0  0  0  0
   -1.2970   -1.6160   -2.5100 C   0  0  0  0  0  0  0  0  0  0  0
   -2.1600   -1.1990   -1.3030 C   0  0  2  0  0  0  0  0  0  0  0
    0.5260    6.9540    0.0890 H   0  0  0  0  0  0  0  0  0  0  0
    0.8180    2.7550    0.1300 H   0  0  0  0  0  0  0  0  0  0  0
    5.1110    5.7090    0.9100 H   0  0  0  0  0  0  0  0  0  0  0
    5.7450    3.2980    1.0080 H   0  0  0  0  0  0  0  0  0  0  0
    5.5440   -1.1450    0.9360 H   0  0  0  0  0  0  0  0  0  0  0
    1.0890   -2.0600    0.1180 H   0  0  0  0  0  0  0  0  0  0  0
   -0.1740    0.3920    0.6690 H   0  0  0  0  0  0  0  0  0  0  0
    0.7960    1.0080   -1.5820 H   0  0  0  0  0  0  0  0  0  0  0
   -1.3970    1.9080   -0.7820 H   0  0  0  0  0  0  0  0  0  0  0
   -1.3670    1.7220   -2.5450 H   0  0  0  0  0  0  0  0  0  0  0
   -3.2470    0.5810   -0.7040 H   0  0  0  0  0  0  0  0  0  0  0
   -3.1590    0.3340   -2.4520 H   0  0  0  0  0  0  0  0  0  0  0
   -0.9420   -2.3530    0.0310 H   0  0  0  0  0  0  0  0  0  0  0
   -1.2200   -2.3050    3.0480 H   0  0  0  0  0  0  0  0  0  0  0
   -0.6550   -0.7230    3.1050 H   0  0  0  0  0  0  0  0  0  0  0
   -0.0700   -0.1870   -3.5820 H   0  0  0  0  0  0  0  0  0  0  0
    0.8480   -1.2980   -2.5510 H   0  0  0  0  0  0  0  0  0  0  0
   -1.8890   -1.5390   -3.4230 H   0  0  0  0  0  0  0  0  0  0  0
   -0.9740   -2.6500   -2.3880 H   0  0  0  0  0  0  0  0  0  0  0
   -3.0330   -1.8480   -1.2240 H   0  0  0  0  0  0  0  0  0  0  0
  1  2  2  0  0  0  0
  1  4  1  0  0  0  0
  1 23  1  0  0  0  0
  2  3  1  0  0  0  0
  2 31  1  0  0  0  0
  3  6  2  0  0  0  0
  4  5  2  0  0  0  0
  4 32  1  0  0  0  0
  5  6  1  0  0  0  0
  5  9  1  0  0  0  0
  6  7  1  0  0  0  0
  7  8  1  0  0  0  0
  7 33  1  0  0  0  0
  8  9  2  0  0  0  0
  8 34  1  0  0  0  0
  9 10  1  0  0  0  0
 10 11  2  0  0  0  0
 10 15  1  0  0  0  0
 11 12  1  0  0  0  0
 12 13  2  0  0  0  0
 12 17  1  0  0  0  0
 13 14  1  0  0  0  0
 13 16  1  0  0  0  0
 14 15  2  0  0  0  0
 14 35  1  0  0  0  0
 18 17  1  1  0  0  0
 17 36  1  0  0  0  0
 18 19  1  0  0  0  0
 18 22  1  0  0  0  0
 18 37  1  0  0  0  0
 19 20  1  0  0  0  0
 19 28  1  0  0  0  0
 19 38  1  0  0  0  0
 20 21  1  0  0  0  0
 20 39  1  0  0  0  0
 20 40  1  0  0  0  0
 21 30  1  0  0  0  0
 21 41  1  0  0  0  0
 21 42  1  0  0  0  0
 22 24  1  6  0  0  0
 22 30  1  0  0  0  0
 22 43  1  0  0  0  0
 24 25  1  0  0  0  0
 24 26  2  0  0  0  0
 24 27  2  0  0  0  0
 25 44  1  0  0  0  0
 25 45  1  0  0  0  0
 28 29  1  0  0  0  0
 28 46  1  0  0  0  0
 28 47  1  0  0  0  0
 29 30  1  0  0  0  0
 29 48  1  0  0  0  0
 29 49  1  0  0  0  0
 30 50  1  0  0  0  0
M  END
> <From>
www.bindingDB.org

> <BindingDB Reactant_set_id>
50304369

> <Ligand InChI>
InChI=1S/C19H20F2N6O2S/c20-11-5-12-13(7-24-17(12)23-6-11)18-25-8-14(21)19(27-18)26-15-9-1-3-10(4-2-9)16(15)30(22,28)29/h5-10,15-16H,1-4H2,(H,23,24)(H2,22,28,29)(H,25,26,27)/t9?,10?,15-,16-/m0/s1

> <Ligand InChI Key>
BZIKSZZVJAQWMC-SBBZOCNPSA-N

> <BindingDB MonomerID>
50067531

> <BindingDB Ligand Name>
CHEMBL3401983

> <Target Name Assigned by Curator or DataSource>
Cyclin-dependent kinase 2

> <Target Source Organism According to Curator or DataSource>
Homo sapiens

> <Ki (nM)>
>4000

> <IC50 (nM)>


> <Kd (nM)>


> <EC50 (nM)>


> <kon (M-1-s-1)>


> <koff (s-1)>


> <pH>


> <Temp C>


> <Curation/DataSource>
ChEMBL

> <Article DOI>
10.1016/j.bmcl.2015.03.013

> <PMID>
25827523

> <PubChem AID>


> <Patent Number>


> <Authors>
Boyd, MJ; Bandarage, UK; Bennett, H; Byrn, RR; Davies, I; Gu, W; Jacobs, M; Ledeboer, MW; Ledford, B; Leeman, JR; Perola, E; Wang, T; Bennani, Y; Clark, MP; Charifson, PS

> <Institution>
Vertex Pharmaceuticals Inc

> <Link to Ligand in BindingDB>
http://www.bindingdb.org/bind/chemsearch/marvin/MolStructure.jsp?monomerid=50067531

> <Link to Ligand-Target Pair in BindingDB>
http://www.bindingdb.org/jsp/dbsearch/PrimarySearch_ki.jsp?energyterm=kJ/mole&tag=pol&polymerid=796&target=Cyclin-dependent+kinase+2&column=ki&startPg=0&Increment=50&submit=Search

> <Link to Ligand-Target Pair in BindingDB>
http://www.bindingdb.org/jsp/dbsearch/PrimarySearch_ki.jsp?energyterm=kJ/mole&tag=r21&monomerid=50067531&enzyme=Cyclin-dependent+kinase+2&column=ki&startPg=0&Increment=50&submit=Search

> <Ligand HET ID in PDB>


> <PDB ID(s) for Ligand-Target Complex>


> <PubChem CID>
118728819

> <PubChem SID>
103961970

> <ChEBI ID of Ligand>


> <ChEMBL ID of Ligand>
CHEMBL3401983

> <DrugBank ID of Ligand>


> <IUPHAR_GRAC ID of Ligand>


> <KEGG ID of Ligand>


> <ZINC ID of Ligand>
ZINC03791117

> <Number of Protein Chains in Target (bigger than 1 implies a multichain complex)>
1

> <BindingDB Target Chain Sequence>
MENFQKVEKIGEGTYGVVYKARNKLTGEVVALKKIRLDTETEGVPSTAIREISLLKELNHPNIVKLLDVIHTENKLYLVFEFLHQDLKKFMDASALTGIPLPLIKSYLFQLLQGLAFCHSHRVLHRDLKPQNLLINTEGAIKLADFGLARAFGVPVRTYTHEVVTLWYRAPEILLGCKYYSTAVDIWSLGCIFAEMVTRRALFPGDSEIDQLFRIFRTLGTPDEVVWPGVTSMPDYKPSFPKWARQDFSKVVPPLDEDGRSLLSQMLHYDPNKRISAKAALAHPFFQDVTKPVPHLRL

> <PDB ID(s) of Target Chain>
1CKP,1DI8,1DM2,1E1V,1E1X,1E9H,1F5Q,1FIN,1FQ1,1FVT,1FVV,1G5S,1GIH,1GY3,1GZ8,1H00,1H01,1H07,1H08,1H0V,1H0W,1H1P,1H1Q,1H1R,1H1S,1H24,1H25,1H26,1H27,1H28,1HCK,1HCL,1JST,1JSU,1JSV,1JVP,1KE5,1KE6,1KE7,1KE8,1KE9,1OGU,1OI9,1OIQ,1OIR,1OIU,1OIY,1OKV,1OKW,1OL1,1OL2,1P2A,1P5E,1PF8,1PKD,1PW2,1PXI,1PXJ,1PXK,1PXL,1PXM,1PXN,1PXO,1PXP,1PYE,1QMZ,1R78,1URC,1URW,1V1K,1VYW,1VYZ,1W0X,1W8C,1W98,1WCC,1Y8Y,1Y91,1YKR,2A0C,2A4L,2B52,2B53,2B54,2B55,2BHE,2BHH,2BKZ,2BPM,2BTR,2BTS,2C4G,2C5N,2C5O,2C5V,2C5X,2C5Y,2C68,2C69,2C6I,2C6K,2C6L,2C6M,2C6O,2C6T,2CCH,2CCI,2CJM,2CLX,2DUV,2EXM,2FVD,2G9X,2I40,2J9M,2JGZ,2R3F,2R3G,2R3H,2R3I,2R3J,2R3K,2R3L,2R3M,2R3N,2R3O,2R3P,2R3Q,2R3R,2R64,2UUE,2UZB,2UZD,2UZE,2UZL,2UZN,2UZO,2V0D,2V22,2VTA,2VTH,2VTI,2VTJ,2VTL,2VTM,2VTN,2VTO,2VTP,2VTQ,2VTR,2VTS,2VTT,2VU3,2VV9,2W05,2W06,2W17,2W1H,2WEV,2WFY,2WHB,2WIH,2WIP,2WMA,2WMB,2WPA,2WXV,2X1N,2XMY,2XNB,3BHT,3BHU,3BHV,3DDP,3DDQ,3DOG,3EID,3EJ1,3EOC,3EZR,3EZV,3F5X,3FZ1,3IG7,3IGG,3LE6,3LFN,3LFQ,3LFS,3MY5,3NS9,3PJ8,3PXF,3PXQ,3PXR,3PXY,3PXZ,3PY0,3PY1,3QHR,3QHW,3QL8,3QQF,3QQG,3QQH,3QQJ,3QQK,3QQL,3QRT,3QRU,3QTQ,3QTR,3QTS,3QTU,3QTW,3QTX,3QTZ,3QU0,3QWJ,3QWK,3QX2,3QX4,3QXO,3QXP,3QZF,3QZG,3QZH,3QZI,3R1Q,3R1S,3R1Y,3R28,3R6X,3R71,3R73,3R7E,3R7I,3R7U,3R7V,3R7Y,3R83,3R8L,3R8M,3R8P,3R8U,3R8V,3R8Z,3R9D,3R9H,3R9N,3R9O,3RAH,3RAI,3RAK,3RAL,3RJC,3RK5,3RK7,3RK9,3RKB,3RM6,3RM7,3RMF,3RNI,3ROY,3RPO,3RPR,3RPV,3RPY,3RZB,3S00,3S0O,3S1H,3S2P,3SQQ,3SW4,3SW7,3TI1,3TIY,3TIZ,3TNW,3ULI,3UNJ,3UNK,3WBL,4ACM,4BCK,4BCM,4BCN,4BCO,4BCP,4BCQ,4BGH,4BZD,4CFM,4CFN,4CFU,4CFV,4CFW,4CFX,4D1X,4D1Z,4EK3,4EK4,4EK5,4EK6,4EK8,4EOQ,4EOR,4EOS,4ERW,4EZ3,4EZ7,4FKG,4FKI,4FKJ,4FKL,4FKO,4FKP,4FKQ,4FKR,4FKS,4FKT,4FKU,4FKV,4FKW,4FX3,4GCJ,4I3Z,4II5,4KD1,4LYN,4NJ3,4RJ3,5A14,5AND,5ANE,5ANG,5ANI,5ANJ,5ANK,5ANO,5CYI,5D1J,5FP5,5FP6,5IEV,5IEX,5IEY,5IF1,5JQ5,5JQ8,5K4J,5L2W,5LMK,5MHQ,5NEV,5OO0,5OSJ,5UQ1,5UQ2,5UQ3,6ATH,6GUB,6GUC,6GUE,6GUF,6GUH,6GUK,6GVA,6INL,6JGM,6OQI,6P3W,6Q3B,6Q3C,6Q3F,6Q48,6Q49,6Q4A,6Q4B,6Q4C,6Q4D,6Q4E,6Q4F,6Q4H,6Q4J,6Q4K,6RIJ,6SG4,7ACK,7B5L,7B5R,7B7S,7E34,7KJS,7M2F,7NVQ

> <UniProt (SwissProt) Recommended Name of Target Chain>
Cyclin-dependent kinase 2

> <UniProt (SwissProt) Entry Name of Target Chain>
CDK2_HUMAN

> <UniProt (SwissProt) Primary ID of Target Chain>
P24941

> <UniProt (SwissProt) Secondary ID(s) of Target Chain>
A8K7C6,O75100

> <UniProt (SwissProt) Alternative ID(s) of Target Chain>


> <UniProt (TrEMBL) Submitted Name of Target Chain>


> <UniProt (TrEMBL) Entry Name of Target Chain>


> <UniProt (TrEMBL) Primary ID of Target Chain>
A0A024RB77

> <UniProt (TrEMBL) Secondary ID(s) of Target Chain>


> <UniProt (TrEMBL) Alternative ID(s) of Target Chain>


$$$$
ttt_mol_1

Vconf v2.1
 56 60  0  0  0  0  0  0  0  0999 V2000
   -2.2290   -0.0510   -0.1040 C   0  0  0  0  0  0  0  0  0  0  0
   -2.9950   -1.2350   -0.1470 C   0  0  0  0  0  0  0  0  0  0  0
   -2.4180   -2.4410    0.1120 N   0  0  0  0  0  0  0  0  0  0  0
   -0.8570   -0.1300    0.2040 C   0  0  0  0  0  0  0  0  0  0  0
   -0.2890   -1.3920    0.4500 C   0  0  0  0  0  0  0  0  0  0  0
   -1.0980   -2.5250    0.4060 C   0  0  0  0  0  0  0  0  0  0  0
   -0.3530   -3.5980    0.6950 N   0  0  0  0  0  0  0  0  0  0  0
    0.9100   -3.1970    0.9210 C   0  0  0  0  0  0  0  0  0  0  0
    1.0040   -1.8110    0.7680 C   0  0  0  0  0  0  0  0  0  0  0
    2.1770   -1.0440    0.9010 C   0  0  0  0  0  0  0  0  0  0  0
    2.1850    0.2880    0.6470 N   0  0  0  0  0  0  0  0  0  0  0
    3.3040    1.0480    0.7490 C   0  0  0  0  0  0  0  0  0  0  0
    4.5110    0.4510    1.1480 C   0  0  0  0  0  0  0  0  0  0  0
    4.4940   -0.9260    1.4080 C   0  0  0  0  0  0  0  0  0  0  0
    3.3430   -1.6290    1.2740 N   0  0  0  0  0  0  0  0  0  0  0
    5.6170    1.1350    1.2650 F   0  0  0  0  0  0  0  0  0  0  0
    3.2670    2.3690    0.4580 N   0  0  0  0  0  0  0  0  0  0  0
    2.1080    3.0540   -0.0050 C   0  0  1  0  0  0  0  0  0  0  0
    2.1630    4.5260    0.4580 C   0  0  2  0  0  0  0  0  0  0  0
    0.8350    5.2020    0.0580 C   0  0  0  0  0  0  0  0  0  0  0
    0.6340    5.1210   -1.4700 C   0  0  0  0  0  0  0  0  0  0  0
    1.8380    4.4160   -2.1290 C   0  0  2  0  0  0  0  0  0  0  0
    2.0060    2.9870   -1.5550 C   0  0  2  0  0  0  0  0  0  0  0
   -2.7830    1.1040   -0.3440 F   0  0  0  0  0  0  0  0  0  0  0
    0.8660    2.0310   -1.9670 C   0  0  0  0  0  0  0  0  0  0  0
    0.7210    1.8730   -3.4880 C   0  0  0  0  0  0  0  0  0  0  0
   -0.4200    0.7270   -3.8220 P   0  0  0  0  0  0  0  0  0  0  0
   -0.0410   -0.6140   -3.1700 O   0  0  0  0  0  0  0  0  0  0  0
   -1.7870    1.1900   -3.2880 O   0  0  0  0  0  0  0  0  0  0  0
   -0.5200    0.5430   -5.2450 O   0  0  0  0  0  0  0  0  0  0  0
    3.3170    5.2590   -0.2550 C   0  0  0  0  0  0  0  0  0  0  0
    3.1060    5.2220   -1.7840 C   0  0  0  0  0  0  0  0  0  0  0
   -3.9910   -1.1920   -0.3670 H   0  0  0  0  0  0  0  0  0  0  0
   -0.2930    0.7170    0.2520 H   0  0  0  0  0  0  0  0  0  0  0
   -0.6720   -4.5120    0.7350 H   0  0  0  0  0  0  0  0  0  0  0
    1.6850   -3.8170    1.1560 H   0  0  0  0  0  0  0  0  0  0  0
    5.3470   -1.4060    1.6960 H   0  0  0  0  0  0  0  0  0  0  0
    4.0890    2.8750    0.5510 H   0  0  0  0  0  0  0  0  0  0  0
    1.2160    2.6140    0.4470 H   0  0  0  0  0  0  0  0  0  0  0
    2.2950    4.5770    1.5400 H   0  0  0  0  0  0  0  0  0  0  0
    0.0060    4.7030    0.5610 H   0  0  0  0  0  0  0  0  0  0  0
    0.8550    6.2480    0.3680 H   0  0  0  0  0  0  0  0  0  0  0
   -0.2820    4.5760   -1.6930 H   0  0  0  0  0  0  0  0  0  0  0
    0.5440    6.1300   -1.8750 H   0  0  0  0  0  0  0  0  0  0  0
    1.7150    4.3910   -3.2110 H   0  0  0  0  0  0  0  0  0  0  0
    2.9350    2.5770   -1.9570 H   0  0  0  0  0  0  0  0  0  0  0
    1.0880    1.0480   -1.5550 H   0  0  0  0  0  0  0  0  0  0  0
   -0.0800    2.3770   -1.5520 H   0  0  0  0  0  0  0  0  0  0  0
    0.4060    2.8150   -3.9350 H   0  0  0  0  0  0  0  0  0  0  0
    1.6750    1.5660   -3.9170 H   0  0  0  0  0  0  0  0  0  0  0
   -0.6580   -1.3460   -3.3760 H   0  0  0  0  0  0  0  0  0  0  0
   -2.5240    0.5820   -3.5000 H   0  0  0  0  0  0  0  0  0  0  0
    3.3470    6.2960    0.0820 H   0  0  0  0  0  0  0  0  0  0  0
    4.2650    4.7830   -0.0060 H   0  0  0  0  0  0  0  0  0  0  0
    3.0000    6.2400   -2.1610 H   0  0  0  0  0  0  0  0  0  0  0
    3.9720    4.7590   -2.2610 H   0  0  0  0  0  0  0  0  0  0  0
  1  2  2  0  0  0  0
  1  4  1  0  0  0  0
  1 24  1  0  0  0  0
  2  3  1  0  0  0  0
  2 33  1  0  0  0  0
  3  6  2  0  0  0  0
  4  5  2  0  0  0  0
  4 34  1  0  0  0  0
  5  6  1  0  0  0  0
  5  9  1  0  0  0  0
  6  7  1  0  0  0  0
  7  8  1  0  0  0  0
  7 35  1  0  0  0  0
  8  9  2  0  0  0  0
  8 36  1  0  0  0  0
  9 10  1  0  0  0  0
 10 11  2  0  0  0  0
 10 15  1  0  0  0  0
 11 12  1  0  0  0  0
 12 13  2  0  0  0  0
 12 17  1  0  0  0  0
 13 14  1  0  0  0  0
 13 16  1  0  0  0  0
 14 15  2  0  0  0  0
 14 37  1  0  0  0  0
 18 17  1  1  0  0  0
 17 38  1  0  0  0  0
 18 19  1  0  0  0  0
 18 23  1  0  0  0  0
 18 39  1  0  0  0  0
 19 20  1  0  0  0  0
 19 31  1  0  0  0  0
 19 40  1  0  0  0  0
 20 21  1  0  0  0  0
 20 41  1  0  0  0  0
 20 42  1  0  0  0  0
 21 22  1  0  0  0  0
 21 43  1  0  0  0  0
 21 44  1  0  0  0  0
 22 23  1  0  0  0  0
 22 32  1  0  0  0  0
 22 45  1  0  0  0  0
 23 25  1  6  0  0  0
 23 46  1  0  0  0  0
 25 26  1  0  0  0  0
 25 47  1  0  0  0  0
 25 48  1  0  0  0  0
 26 27  1  0  0  0  0
 26 49  1  0  0  0  0
 26 50  1  0  0  0  0
 27 28  1  0  0  0  0
 27 29  1  0  0  0  0
 27 30  2  0  0  0  0
 28 51  1  0  0  0  0
 29 52  1  0  0  0  0
 31 32  1  0  0  0  0
 31 53  1  0  0  0  0
 31 54  1  0  0  0  0
 32 55  1  0  0  0  0
 32 56  1  0  0  0  0
M  END
> <From>
www.bindingDB.org

> <BindingDB Reactant_set_id>
50304380

> <Ligand InChI>
InChI=1S/C21H24F2N5O3P/c22-13-7-15-16(9-25-19(15)24-8-13)20-26-10-17(23)21(28-20)27-18-12-3-1-11(2-4-12)14(18)5-6-32(29,30)31/h7-12,14,18H,1-6H2,(H,24,25)(H,26,27,28)(H2,29,30,31)/t11?,12?,14-,18-/m0/s1

> <Ligand InChI Key>
YQXSREGMIKNZEU-TZQPCPOVSA-N

> <BindingDB MonomerID>
50067513

> <BindingDB Ligand Name>
CHEMBL3401977

> <Target Name Assigned by Curator or DataSource>
Cyclin-dependent kinase 2

> <Target Source Organism According to Curator or DataSource>
Homo sapiens

> <Ki (nM)>
>4000

> <IC50 (nM)>


> <Kd (nM)>


> <EC50 (nM)>


> <kon (M-1-s-1)>


> <koff (s-1)>


> <pH>


> <Temp C>


> <Curation/DataSource>
ChEMBL

> <Article DOI>
10.1016/j.bmcl.2015.03.013

> <PMID>
25827523

> <PubChem AID>


> <Patent Number>


> <Authors>
Boyd, MJ; Bandarage, UK; Bennett, H; Byrn, RR; Davies, I; Gu, W; Jacobs, M; Ledeboer, MW; Ledford, B; Leeman, JR; Perola, E; Wang, T; Bennani, Y; Clark, MP; Charifson, PS

> <Institution>
Vertex Pharmaceuticals Inc

> <Link to Ligand in BindingDB>
http://www.bindingdb.org/bind/chemsearch/marvin/MolStructure.jsp?monomerid=50067513

> <Link to Ligand-Target Pair in BindingDB>
http://www.bindingdb.org/jsp/dbsearch/PrimarySearch_ki.jsp?energyterm=kJ/mole&tag=pol&polymerid=796&target=Cyclin-dependent+kinase+2&column=ki&startPg=0&Increment=50&submit=Search

> <Link to Ligand-Target Pair in BindingDB>
http://www.bindingdb.org/jsp/dbsearch/PrimarySearch_ki.jsp?energyterm=kJ/mole&tag=r21&monomerid=50067513&enzyme=Cyclin-dependent+kinase+2&column=ki&startPg=0&Increment=50&submit=Search

> <Ligand HET ID in PDB>


> <PDB ID(s) for Ligand-Target Complex>


> <PubChem CID>
118728813

> <PubChem SID>
103961952

> <ChEBI ID of Ligand>


> <ChEMBL ID of Ligand>
CHEMBL3401977

> <DrugBank ID of Ligand>


> <IUPHAR_GRAC ID of Ligand>


> <KEGG ID of Ligand>


> <ZINC ID of Ligand>
ZINC00580262

> <Number of Protein Chains in Target (bigger than 1 implies a multichain complex)>
1

> <BindingDB Target Chain Sequence>
MENFQKVEKIGEGTYGVVYKARNKLTGEVVALKKIRLDTETEGVPSTAIREISLLKELNHPNIVKLLDVIHTENKLYLVFEFLHQDLKKFMDASALTGIPLPLIKSYLFQLLQGLAFCHSHRVLHRDLKPQNLLINTEGAIKLADFGLARAFGVPVRTYTHEVVTLWYRAPEILLGCKYYSTAVDIWSLGCIFAEMVTRRALFPGDSEIDQLFRIFRTLGTPDEVVWPGVTSMPDYKPSFPKWARQDFSKVVPPLDEDGRSLLSQMLHYDPNKRISAKAALAHPFFQDVTKPVPHLRL

> <PDB ID(s) of Target Chain>
1CKP,1DI8,1DM2,1E1V,1E1X,1E9H,1F5Q,1FIN,1FQ1,1FVT,1FVV,1G5S,1GIH,1GY3,1GZ8,1H00,1H01,1H07,1H08,1H0V,1H0W,1H1P,1H1Q,1H1R,1H1S,1H24,1H25,1H26,1H27,1H28,1HCK,1HCL,1JST,1JSU,1JSV,1JVP,1KE5,1KE6,1KE7,1KE8,1KE9,1OGU,1OI9,1OIQ,1OIR,1OIU,1OIY,1OKV,1OKW,1OL1,1OL2,1P2A,1P5E,1PF8,1PKD,1PW2,1PXI,1PXJ,1PXK,1PXL,1PXM,1PXN,1PXO,1PXP,1PYE,1QMZ,1R78,1URC,1URW,1V1K,1VYW,1VYZ,1W0X,1W8C,1W98,1WCC,1Y8Y,1Y91,1YKR,2A0C,2A4L,2B52,2B53,2B54,2B55,2BHE,2BHH,2BKZ,2BPM,2BTR,2BTS,2C4G,2C5N,2C5O,2C5V,2C5X,2C5Y,2C68,2C69,2C6I,2C6K,2C6L,2C6M,2C6O,2C6T,2CCH,2CCI,2CJM,2CLX,2DUV,2EXM,2FVD,2G9X,2I40,2J9M,2JGZ,2R3F,2R3G,2R3H,2R3I,2R3J,2R3K,2R3L,2R3M,2R3N,2R3O,2R3P,2R3Q,2R3R,2R64,2UUE,2UZB,2UZD,2UZE,2UZL,2UZN,2UZO,2V0D,2V22,2VTA,2VTH,2VTI,2VTJ,2VTL,2VTM,2VTN,2VTO,2VTP,2VTQ,2VTR,2VTS,2VTT,2VU3,2VV9,2W05,2W06,2W17,2W1H,2WEV,2WFY,2WHB,2WIH,2WIP,2WMA,2WMB,2WPA,2WXV,2X1N,2XMY,2XNB,3BHT,3BHU,3BHV,3DDP,3DDQ,3DOG,3EID,3EJ1,3EOC,3EZR,3EZV,3F5X,3FZ1,3IG7,3IGG,3LE6,3LFN,3LFQ,3LFS,3MY5,3NS9,3PJ8,3PXF,3PXQ,3PXR,3PXY,3PXZ,3PY0,3PY1,3QHR,3QHW,3QL8,3QQF,3QQG,3QQH,3QQJ,3QQK,3QQL,3QRT,3QRU,3QTQ,3QTR,3QTS,3QTU,3QTW,3QTX,3QTZ,3QU0,3QWJ,3QWK,3QX2,3QX4,3QXO,3QXP,3QZF,3QZG,3QZH,3QZI,3R1Q,3R1S,3R1Y,3R28,3R6X,3R71,3R73,3R7E,3R7I,3R7U,3R7V,3R7Y,3R83,3R8L,3R8M,3R8P,3R8U,3R8V,3R8Z,3R9D,3R9H,3R9N,3R9O,3RAH,3RAI,3RAK,3RAL,3RJC,3RK5,3RK7,3RK9,3RKB,3RM6,3RM7,3RMF,3RNI,3ROY,3RPO,3RPR,3RPV,3RPY,3RZB,3S00,3S0O,3S1H,3S2P,3SQQ,3SW4,3SW7,3TI1,3TIY,3TIZ,3TNW,3ULI,3UNJ,3UNK,3WBL,4ACM,4BCK,4BCM,4BCN,4BCO,4BCP,4BCQ,4BGH,4BZD,4CFM,4CFN,4CFU,4CFV,4CFW,4CFX,4D1X,4D1Z,4EK3,4EK4,4EK5,4EK6,4EK8,4EOQ,4EOR,4EOS,4ERW,4EZ3,4EZ7,4FKG,4FKI,4FKJ,4FKL,4FKO,4FKP,4FKQ,4FKR,4FKS,4FKT,4FKU,4FKV,4FKW,4FX3,4GCJ,4I3Z,4II5,4KD1,4LYN,4NJ3,4RJ3,5A14,5AND,5ANE,5ANG,5ANI,5ANJ,5ANK,5ANO,5CYI,5D1J,5FP5,5FP6,5IEV,5IEX,5IEY,5IF1,5JQ5,5JQ8,5K4J,5L2W,5LMK,5MHQ,5NEV,5OO0,5OSJ,5UQ1,5UQ2,5UQ3,6ATH,6GUB,6GUC,6GUE,6GUF,6GUH,6GUK,6GVA,6INL,6JGM,6OQI,6P3W,6Q3B,6Q3C,6Q3F,6Q48,6Q49,6Q4A,6Q4B,6Q4C,6Q4D,6Q4E,6Q4F,6Q4H,6Q4J,6Q4K,6RIJ,6SG4,7ACK,7B5L,7B5R,7B7S,7E34,7KJS,7M2F,7NVQ

> <UniProt (SwissProt) Recommended Name of Target Chain>
Cyclin-dependent kinase 2

> <UniProt (SwissProt) Entry Name of Target Chain>
CDK2_HUMAN

> <UniProt (SwissProt) Primary ID of Target Chain>
P24941

> <UniProt (SwissProt) Secondary ID(s) of Target Chain>
A8K7C6,O75100

> <UniProt (SwissProt) Alternative ID(s) of Target Chain>


> <UniProt (TrEMBL) Submitted Name of Target Chain>


> <UniProt (TrEMBL) Entry Name of Target Chain>


> <UniProt (TrEMBL) Primary ID of Target Chain>
A0A024RB77

> <UniProt (TrEMBL) Secondary ID(s) of Target Chain>


> <UniProt (TrEMBL) Alternative ID(s) of Target Chain>


$$$$
BindingDB_50258287_mol_1

Vconf v2.0 Academic SN VC001-00000579
 43 46  0  0  0  0  0  0  0  0999 V2000
    9.4730   -3.1910    0.5090 C   0  0  0  0  0  0  0  0  0  0  0
    8.8100   -4.3560    0.9430 C   0  0  0  0  0  0  0  0  0  0  0
    9.3850   -5.0880    1.9330 N   0  0  0  0  0  0  0  0  0  0  0
   10.6930   -2.8200    1.1010 C   0  0  0  0  0  0  0  0  0  0  0
   11.1960   -3.6460    2.1130 C   0  0  0  0  0  0  0  0  0  0  0
   10.5210   -4.7440    2.4830 N   0  0  0  0  0  0  0  0  0  0  0
   11.2380   -5.3270    3.4620 C   0  0  0  0  0  0  0  0  0  0  0
   12.3280   -4.5520    3.6500 N   0  0  0  0  0  0  0  0  0  0  0
   12.3130   -3.5370    2.8410 N   0  0  0  0  0  0  0  0  0  0  0
   10.9630   -6.5120    4.1940 C   0  0  0  0  0  0  0  0  0  0  0
   11.8240   -6.8990    5.2440 C   0  0  0  0  0  0  0  0  0  0  0
   11.5780   -8.0640    5.9870 C   0  0  0  0  0  0  0  0  0  0  0
   10.4640   -8.8630    5.6890 C   0  0  0  0  0  0  0  0  0  0  0
    9.5790   -8.5110    4.6470 C   0  0  0  0  0  0  0  0  0  0  0
    9.8480   -7.3340    3.9120 C   0  0  0  0  0  0  0  0  0  0  0
    8.4050   -9.3770    4.3570 C   0  0  0  0  0  0  0  0  0  0  0
    7.6090   -8.9270    3.3280 F   0  0  0  0  0  0  0  0  0  0  0
    8.8240  -10.6410    4.0150 F   0  0  0  0  0  0  0  0  0  0  0
    7.6020   -9.4720    5.4680 F   0  0  0  0  0  0  0  0  0  0  0
    7.6370   -4.7260    0.3860 N   0  0  0  0  0  0  0  0  0  0  0
    6.9060   -5.8860    0.7690 C   0  0  0  0  0  0  0  0  0  0  0
    5.5170   -5.4720    1.2790 C   0  0  0  0  0  0  0  0  0  0  0
    4.6900   -6.7240    1.6060 C   0  0  0  0  0  0  0  0  0  0  0
    4.5560   -7.5810    0.4180 N   0  0  0  0  0  0  0  0  0  0  0
    5.8750   -8.0230   -0.0620 C   0  0  0  0  0  0  0  0  0  0  0
    6.7470   -6.8170   -0.4430 C   0  0  0  0  0  0  0  0  0  0  0
    9.0720   -2.6160   -0.2320 H   0  0  0  0  0  0  0  0  0  0  0
   11.1920   -1.9800    0.8070 H   0  0  0  0  0  0  0  0  0  0  0
   12.6420   -6.3330    5.4800 H   0  0  0  0  0  0  0  0  0  0  0
   12.2080   -8.3290    6.7440 H   0  0  0  0  0  0  0  0  0  0  0
   10.2950   -9.7080    6.2350 H   0  0  0  0  0  0  0  0  0  0  0
    9.2130   -7.0850    3.1580 H   0  0  0  0  0  0  0  0  0  0  0
    7.2690   -4.1680   -0.3160 H   0  0  0  0  0  0  0  0  0  0  0
    7.4100   -6.4420    1.5630 H   0  0  0  0  0  0  0  0  0  0  0
    5.0020   -4.8880    0.5150 H   0  0  0  0  0  0  0  0  0  0  0
    5.6260   -4.8670    2.1800 H   0  0  0  0  0  0  0  0  0  0  0
    5.1720   -7.2820    2.4110 H   0  0  0  0  0  0  0  0  0  0  0
    3.6970   -6.4180    1.9350 H   0  0  0  0  0  0  0  0  0  0  0
    4.1440   -7.0080   -0.3210 H   0  0  0  0  0  0  0  0  0  0  0
    5.7390   -8.6540   -0.9400 H   0  0  0  0  0  0  0  0  0  0  0
    6.3740   -8.6050    0.7150 H   0  0  0  0  0  0  0  0  0  0  0
    6.2750   -6.2760   -1.2650 H   0  0  0  0  0  0  0  0  0  0  0
    7.7280   -7.1690   -0.7620 H   0  0  0  0  0  0  0  0  0  0  0
  1  2  1  0  0  0  0
  1  4  2  0  0  0  0
  1 27  1  0  0  0  0
  2  3  2  0  0  0  0
  2 20  1  0  0  0  0
  3  6  1  0  0  0  0
  4  5  1  0  0  0  0
  4 28  1  0  0  0  0
  5  6  1  0  0  0  0
  5  9  2  0  0  0  0
  6  7  1  0  0  0  0
  7  8  2  0  0  0  0
  7 10  1  0  0  0  0
  8  9  1  0  0  0  0
 10 11  1  0  0  0  0
 10 15  2  0  0  0  0
 11 12  2  0  0  0  0
 11 29  1  0  0  0  0
 12 13  1  0  0  0  0
 12 30  1  0  0  0  0
 13 14  2  0  0  0  0
 13 31  1  0  0  0  0
 14 15  1  0  0  0  0
 14 16  1  0  0  0  0
 15 32  1  0  0  0  0
 16 17  1  0  0  0  0
 16 18  1  0  0  0  0
 16 19  1  0  0  0  0
 20 21  1  0  0  0  0
 20 33  1  0  0  0  0
 21 22  1  0  0  0  0
 21 26  1  0  0  0  0
 21 34  1  0  0  0  0
 22 23  1  0  0  0  0
 22 35  1  0  0  0  0
 22 36  1  0  0  0  0
 23 24  1  0  0  0  0
 23 37  1  0  0  0  0
 23 38  1  0  0  0  0
 24 25  1  0  0  0  0
 24 39  1  0  0  0  0
 25 26  1  0  0  0  0
 25 40  1  0  0  0  0
 25 41  1  0  0  0  0
 26 42  1  0  0  0  0
 26 43  1  0  0  0  0
M  END
> <From>
www.bindingDB.org

> <BindingDB Reactant_set_id>
50459450

> <Ligand InChI>
InChI=1S/C17H17F3N6/c18-17(19,20)12-3-1-2-11(10-12)16-24-23-15-5-4-14(25-26(15)16)22-13-6-8-21-9-7-13/h1-5,10,13,21H,6-9H2,(H,22,25)

> <Ligand InChI Key>
SENFEQVLOFSJFU-UHFFFAOYSA-N

> <BindingDB MonomerID>
50258287

> <BindingDB Ligand Name>
CHEMBL493169::N-(piperidin-4-yl)-3-(3-(trifluoromethyl)phenyl)-[1,2,4]triazolo[4,3-b]pyridazin-6-amine

> <Target Name Assigned by Curator or DataSource>
Cyclin-dependent kinase 2

> <Target Source Organism According to Curator or DataSource>
Homo sapiens

> <Ki (nM)>
>4000

> <IC50 (nM)>


> <Kd (nM)>


> <EC50 (nM)>


> <kon (M-1-s-1)>


> <koff (s-1)>


> <pH>


> <Temp C>


> <Curation/DataSource>
ChEMBL

> <Article DOI>
10.1016/j.bmcl.2009.04.061

> <PMID>
19414255

> <PubChem AID>


> <Patent Number>


> <Authors>
Grey, R; Pierce, AC; Bemis, GW; Jacobs, MD; Moody, CS; Jajoo, R; Mohal, N; Green, J

> <Institution>
Vertex Pharmaceuticals Inc

> <Link to Ligand in BindingDB>
http://www.bindingdb.org/bind/chemsearch/marvin/MolStructure.jsp?monomerid=50258287

> <Link to Ligand-Target Pair in BindingDB>
http://www.bindingdb.org/jsp/dbsearch/PrimarySearch_ki.jsp?energyterm=kJ/mole&tag=pol&polymerid=796&target=Cyclin-dependent+kinase+2&column=ki&startPg=0&Increment=50&submit=Search

> <Link to Ligand-Target Pair in BindingDB>
http://www.bindingdb.org/jsp/dbsearch/PrimarySearch_ki.jsp?energyterm=kJ/mole&tag=r21&monomerid=50258287&enzyme=Cyclin-dependent+kinase+2&column=ki&startPg=0&Increment=50&submit=Search

> <Ligand HET ID in PDB>


> <PDB ID(s) for Ligand-Target Complex>


> <PubChem CID>
44219632

> <PubChem SID>
104109030

> <ChEBI ID of Ligand>


> <ChEMBL ID of Ligand>
CHEMBL493169

> <DrugBank ID of Ligand>


> <IUPHAR_GRAC ID of Ligand>


> <KEGG ID of Ligand>


> <ZINC ID of Ligand>
ZINC40430676

> <Number of Protein Chains in Target (bigger than 1 implies a multichain complex)>
1

> <BindingDB Target Chain Sequence>
MENFQKVEKIGEGTYGVVYKARNKLTGEVVALKKIRLDTETEGVPSTAIREISLLKELNHPNIVKLLDVIHTENKLYLVFEFLHQDLKKFMDASALTGIPLPLIKSYLFQLLQGLAFCHSHRVLHRDLKPQNLLINTEGAIKLADFGLARAFGVPVRTYTHEVVTLWYRAPEILLGCKYYSTAVDIWSLGCIFAEMVTRRALFPGDSEIDQLFRIFRTLGTPDEVVWPGVTSMPDYKPSFPKWARQDFSKVVPPLDEDGRSLLSQMLHYDPNKRISAKAALAHPFFQDVTKPVPHLRL

> <PDB ID(s) of Target Chain>
1CKP,1DI8,1DM2,1E1V,1E1X,1E9H,1F5Q,1FIN,1FQ1,1FVT,1FVV,1G5S,1GIH,1GY3,1GZ8,1H00,1H01,1H07,1H08,1H0V,1H0W,1H1P,1H1Q,1H1R,1H1S,1H24,1H25,1H26,1H27,1H28,1HCK,1HCL,1JST,1JSU,1JSV,1JVP,1KE5,1KE6,1KE7,1KE8,1KE9,1OGU,1OI9,1OIQ,1OIR,1OIU,1OIY,1OKV,1OKW,1OL1,1OL2,1P2A,1P5E,1PF8,1PKD,1PW2,1PXI,1PXJ,1PXK,1PXL,1PXM,1PXN,1PXO,1PXP,1PYE,1QMZ,1R78,1URC,1URW,1V1K,1VYW,1VYZ,1W0X,1W8C,1W98,1WCC,1Y8Y,1Y91,1YKR,2A0C,2A4L,2B52,2B53,2B54,2B55,2BHE,2BHH,2BKZ,2BPM,2BTR,2BTS,2C4G,2C5N,2C5O,2C5V,2C5X,2C5Y,2C68,2C69,2C6I,2C6K,2C6L,2C6M,2C6O,2C6T,2CCH,2CCI,2CJM,2CLX,2DUV,2EXM,2FVD,2G9X,2I40,2J9M,2JGZ,2R3F,2R3G,2R3H,2R3I,2R3J,2R3K,2R3L,2R3M,2R3N,2R3O,2R3P,2R3Q,2R3R,2R64,2UUE,2UZB,2UZD,2UZE,2UZL,2UZN,2UZO,2V0D,2V22,2VTA,2VTH,2VTI,2VTJ,2VTL,2VTM,2VTN,2VTO,2VTP,2VTQ,2VTR,2VTS,2VTT,2VU3,2VV9,2W05,2W06,2W17,2W1H,2WEV,2WFY,2WHB,2WIH,2WIP,2WMA,2WMB,2WPA,2WXV,2X1N,2XMY,2XNB,3BHT,3BHU,3BHV,3DDP,3DDQ,3DOG,3EID,3EJ1,3EOC,3EZR,3EZV,3F5X,3FZ1,3IG7,3IGG,3LE6,3LFN,3LFQ,3LFS,3MY5,3NS9,3PJ8,3PXF,3PXQ,3PXR,3PXY,3PXZ,3PY0,3PY1,3QHR,3QHW,3QL8,3QQF,3QQG,3QQH,3QQJ,3QQK,3QQL,3QRT,3QRU,3QTQ,3QTR,3QTS,3QTU,3QTW,3QTX,3QTZ,3QU0,3QWJ,3QWK,3QX2,3QX4,3QXO,3QXP,3QZF,3QZG,3QZH,3QZI,3R1Q,3R1S,3R1Y,3R28,3R6X,3R71,3R73,3R7E,3R7I,3R7U,3R7V,3R7Y,3R83,3R8L,3R8M,3R8P,3R8U,3R8V,3R8Z,3R9D,3R9H,3R9N,3R9O,3RAH,3RAI,3RAK,3RAL,3RJC,3RK5,3RK7,3RK9,3RKB,3RM6,3RM7,3RMF,3RNI,3ROY,3RPO,3RPR,3RPV,3RPY,3RZB,3S00,3S0O,3S1H,3S2P,3SQQ,3SW4,3SW7,3TI1,3TIY,3TIZ,3TNW,3ULI,3UNJ,3UNK,3WBL,4ACM,4BCK,4BCM,4BCN,4BCO,4BCP,4BCQ,4BGH,4BZD,4CFM,4CFN,4CFU,4CFV,4CFW,4CFX,4D1X,4D1Z,4EK3,4EK4,4EK5,4EK6,4EK8,4EOQ,4EOR,4EOS,4ERW,4EZ3,4EZ7,4FKG,4FKI,4FKJ,4FKL,4FKO,4FKP,4FKQ,4FKR,4FKS,4FKT,4FKU,4FKV,4FKW,4FX3,4GCJ,4I3Z,4II5,4KD1,4LYN,4NJ3,4RJ3,5A14,5AND,5ANE,5ANG,5ANI,5ANJ,5ANK,5ANO,5CYI,5D1J,5FP5,5FP6,5IEV,5IEX,5IEY,5IF1,5JQ5,5JQ8,5K4J,5L2W,5LMK,5MHQ,5NEV,5OO0,5OSJ,5UQ1,5UQ2,5UQ3,6ATH,6GUB,6GUC,6GUE,6GUF,6GUH,6GUK,6GVA,6INL,6JGM,6OQI,6P3W,6Q3B,6Q3C,6Q3F,6Q48,6Q49,6Q4A,6Q4B,6Q4C,6Q4D,6Q4E,6Q4F,6Q4H,6Q4J,6Q4K,6RIJ,6SG4,7ACK,7B5L,7B5R,7B7S,7E34,7KJS,7M2F,7NVQ

> <UniProt (SwissProt) Recommended Name of Target Chain>
Cyclin-dependent kinase 2

> <UniProt (SwissProt) Entry Name of Target Chain>
CDK2_HUMAN

> <UniProt (SwissProt) Primary ID of Target Chain>
P24941

> <UniProt (SwissProt) Secondary ID(s) of Target Chain>
A8K7C6,O75100

> <UniProt (SwissProt) Alternative ID(s) of Target Chain>


> <UniProt (TrEMBL) Submitted Name of Target Chain>


> <UniProt (TrEMBL) Entry Name of Target Chain>


> <UniProt (TrEMBL) Primary ID of Target Chain>
A0A024RB77

> <UniProt (TrEMBL) Secondary ID(s) of Target Chain>


> <UniProt (TrEMBL) Alternative ID(s) of Target Chain>


$$$$
ttt_mol_1

Vconf v2.1
 55 60  0  0  0  0  0  0  0  0999 V2000
   -3.0970   -0.2750    1.3150 C   0  0  0  0  0  0  0  0  0  0  0
   -3.9330   -1.2810    0.7860 C   0  0  0  0  0  0  0  0  0  0  0
   -3.5820   -2.5930    0.8840 N   0  0  0  0  0  0  0  0  0  0  0
   -1.8930   -0.6410    1.9470 C   0  0  0  0  0  0  0  0  0  0  0
   -1.5630   -2.0050    2.0340 C   0  0  0  0  0  0  0  0  0  0  0
   -2.4260   -2.9540    1.4930 C   0  0  0  0  0  0  0  0  0  0  0
   -1.9070   -4.1720    1.6900 N   0  0  0  0  0  0  0  0  0  0  0
   -0.7380   -4.0410    2.3410 C   0  0  0  0  0  0  0  0  0  0  0
   -0.4770   -2.6890    2.5830 C   0  0  0  0  0  0  0  0  0  0  0
    0.6510   -2.1670    3.2430 C   0  0  0  0  0  0  0  0  0  0  0
    0.7970   -0.8340    3.4310 N   0  0  0  0  0  0  0  0  0  0  0
    1.8680   -0.2930    4.0630 C   0  0  0  0  0  0  0  0  0  0  0
    2.8830   -1.1350    4.5460 C   0  0  0  0  0  0  0  0  0  0  0
    2.7240   -2.5140    4.3480 C   0  0  0  0  0  0  0  0  0  0  0
    1.6250   -2.9880    3.7110 N   0  0  0  0  0  0  0  0  0  0  0
    3.9390   -0.6670    5.1530 F   0  0  0  0  0  0  0  0  0  0  0
    1.9660    1.0460    4.2120 N   0  0  0  0  0  0  0  0  0  0  0
    1.0020    1.9740    3.7260 C   0  0  1  0  0  0  0  0  0  0  0
   -0.3150    1.9460    4.5380 C   0  0  2  0  0  0  0  0  0  0  0
   -1.3470    2.8140    3.7900 C   0  0  0  0  0  0  0  0  0  0  0
   -0.7850    4.2340    3.5680 C   0  0  0  0  0  0  0  0  0  0  0
    0.5550    4.3990    4.3140 C   0  0  2  0  0  0  0  0  0  0  0
    1.6060    3.4020    3.7730 C   0  0  2  0  0  0  0  0  0  0  0
   -3.4340    0.9800    1.2200 F   0  0  0  0  0  0  0  0  0  0  0
    2.1510    3.8190    2.3940 C   0  0  0  0  0  0  0  0  0  0  0
    3.1570    2.9030    1.9840 N   0  0  0  0  0  0  0  0  0  0  0
    3.1140    2.1130    0.8960 C   0  0  0  0  0  0  0  0  0  0  0
    4.2140    1.3740    0.8930 N   0  0  0  0  0  0  0  0  0  0  0
    4.9110    1.7220    1.9730 C   0  0  0  0  0  0  0  0  0  0  0
    4.2570    2.6880    2.6670 O   0  0  0  0  0  0  0  0  0  0  0
    2.1960    2.0560    0.0500 O   0  0  0  0  0  0  0  0  0  0  0
    6.0060    1.2200    2.3030 O   0  0  0  0  0  0  0  0  0  0  0
   -0.0820    2.5640    5.9320 C   0  0  0  0  0  0  0  0  0  0  0
    0.3130    4.0510    5.7970 C   0  0  0  0  0  0  0  0  0  0  0
   -4.8080   -1.0290    0.3240 H   0  0  0  0  0  0  0  0  0  0  0
   -1.2750    0.0740    2.3320 H   0  0  0  0  0  0  0  0  0  0  0
   -2.3090   -5.0080    1.4080 H   0  0  0  0  0  0  0  0  0  0  0
   -0.1340   -4.8170    2.6170 H   0  0  0  0  0  0  0  0  0  0  0
    3.4340   -3.1660    4.6820 H   0  0  0  0  0  0  0  0  0  0  0
    2.7650    1.3960    4.6360 H   0  0  0  0  0  0  0  0  0  0  0
    0.7650    1.7230    2.6890 H   0  0  0  0  0  0  0  0  0  0  0
   -0.6920    0.9280    4.6370 H   0  0  0  0  0  0  0  0  0  0  0
   -1.5760    2.3620    2.8240 H   0  0  0  0  0  0  0  0  0  0  0
   -2.2650    2.8700    4.3760 H   0  0  0  0  0  0  0  0  0  0  0
   -0.6380    4.4080    2.5020 H   0  0  0  0  0  0  0  0  0  0  0
   -1.5000    4.9670    3.9430 H   0  0  0  0  0  0  0  0  0  0  0
    0.9170    5.4240    4.2250 H   0  0  0  0  0  0  0  0  0  0  0
    2.4470    3.4160    4.4700 H   0  0  0  0  0  0  0  0  0  0  0
    1.3360    3.8470    1.6690 H   0  0  0  0  0  0  0  0  0  0  0
    2.5900    4.8150    2.4660 H   0  0  0  0  0  0  0  0  0  0  0
    4.4600    0.7040    0.2380 H   0  0  0  0  0  0  0  0  0  0  0
   -0.9950    2.4830    6.5240 H   0  0  0  0  0  0  0  0  0  0  0
    0.7150    2.0180    6.4390 H   0  0  0  0  0  0  0  0  0  0  0
   -0.4880    4.6790    6.1900 H   0  0  0  0  0  0  0  0  0  0  0
    1.2200    4.2400    6.3720 H   0  0  0  0  0  0  0  0  0  0  0
  1  2  2  0  0  0  0
  1  4  1  0  0  0  0
  1 24  1  0  0  0  0
  2  3  1  0  0  0  0
  2 35  1  0  0  0  0
  3  6  2  0  0  0  0
  4  5  2  0  0  0  0
  4 36  1  0  0  0  0
  5  6  1  0  0  0  0
  5  9  1  0  0  0  0
  6  7  1  0  0  0  0
  7  8  1  0  0  0  0
  7 37  1  0  0  0  0
  8  9  2  0  0  0  0
  8 38  1  0  0  0  0
  9 10  1  0  0  0  0
 10 11  2  0  0  0  0
 10 15  1  0  0  0  0
 11 12  1  0  0  0  0
 12 13  2  0  0  0  0
 12 17  1  0  0  0  0
 13 14  1  0  0  0  0
 13 16  1  0  0  0  0
 14 15  2  0  0  0  0
 14 39  1  0  0  0  0
 18 17  1  1  0  0  0
 17 40  1  0  0  0  0
 18 19  1  0  0  0  0
 18 23  1  0  0  0  0
 18 41  1  0  0  0  0
 19 20  1  0  0  0  0
 19 33  1  0  0  0  0
 19 42  1  0  0  0  0
 20 21  1  0  0  0  0
 20 43  1  0  0  0  0
 20 44  1  0  0  0  0
 21 22  1  0  0  0  0
 21 45  1  0  0  0  0
 21 46  1  0  0  0  0
 22 23  1  0  0  0  0
 22 34  1  0  0  0  0
 22 47  1  0  0  0  0
 23 25  1  6  0  0  0
 23 48  1  0  0  0  0
 25 26  1  0  0  0  0
 25 49  1  0  0  0  0
 25 50  1  0  0  0  0
 26 27  1  0  0  0  0
 26 30  1  0  0  0  0
 27 28  1  0  0  0  0
 27 31  2  0  0  0  0
 28 29  1  0  0  0  0
 28 51  1  0  0  0  0
 29 30  1  0  0  0  0
 29 32  2  0  0  0  0
 33 34  1  0  0  0  0
 33 52  1  0  0  0  0
 33 53  1  0  0  0  0
 34 54  1  0  0  0  0
 34 55  1  0  0  0  0
M  END
> <From>
www.bindingDB.org

> <BindingDB Reactant_set_id>
50304382

> <Ligand InChI>
InChI=1S/C22H21F2N7O3/c23-12-5-13-14(7-26-18(13)25-6-12)19-27-8-16(24)20(29-19)28-17-11-3-1-10(2-4-11)15(17)9-31-21(32)30-22(33)34-31/h5-8,10-11,15,17H,1-4,9H2,(H,25,26)(H,27,28,29)(H,30,32,33)/t10?,11?,15-,17-/m0/s1

> <Ligand InChI Key>
DMGXNXJIKAWOHP-JJIXEQETSA-N

> <BindingDB MonomerID>
50067514

> <BindingDB Ligand Name>
CHEMBL3401978

> <Target Name Assigned by Curator or DataSource>
Cyclin-dependent kinase 2

> <Target Source Organism According to Curator or DataSource>
Homo sapiens

> <Ki (nM)>
>4000

> <IC50 (nM)>


> <Kd (nM)>


> <EC50 (nM)>


> <kon (M-1-s-1)>


> <koff (s-1)>


> <pH>


> <Temp C>


> <Curation/DataSource>
ChEMBL

> <Article DOI>
10.1016/j.bmcl.2015.03.013

> <PMID>
25827523

> <PubChem AID>


> <Patent Number>


> <Authors>
Boyd, MJ; Bandarage, UK; Bennett, H; Byrn, RR; Davies, I; Gu, W; Jacobs, M; Ledeboer, MW; Ledford, B; Leeman, JR; Perola, E; Wang, T; Bennani, Y; Clark, MP; Charifson, PS

> <Institution>
Vertex Pharmaceuticals Inc

> <Link to Ligand in BindingDB>
http://www.bindingdb.org/bind/chemsearch/marvin/MolStructure.jsp?monomerid=50067514

> <Link to Ligand-Target Pair in BindingDB>
http://www.bindingdb.org/jsp/dbsearch/PrimarySearch_ki.jsp?energyterm=kJ/mole&tag=pol&polymerid=796&target=Cyclin-dependent+kinase+2&column=ki&startPg=0&Increment=50&submit=Search

> <Link to Ligand-Target Pair in BindingDB>
http://www.bindingdb.org/jsp/dbsearch/PrimarySearch_ki.jsp?energyterm=kJ/mole&tag=r21&monomerid=50067514&enzyme=Cyclin-dependent+kinase+2&column=ki&startPg=0&Increment=50&submit=Search

> <Ligand HET ID in PDB>


> <PDB ID(s) for Ligand-Target Complex>


> <PubChem CID>
118728814

> <PubChem SID>
103961953

> <ChEBI ID of Ligand>


> <ChEMBL ID of Ligand>
CHEMBL3401978

> <DrugBank ID of Ligand>


> <IUPHAR_GRAC ID of Ligand>


> <KEGG ID of Ligand>


> <ZINC ID of Ligand>
ZINC13781567

> <Number of Protein Chains in Target (bigger than 1 implies a multichain complex)>
1

> <BindingDB Target Chain Sequence>
MENFQKVEKIGEGTYGVVYKARNKLTGEVVALKKIRLDTETEGVPSTAIREISLLKELNHPNIVKLLDVIHTENKLYLVFEFLHQDLKKFMDASALTGIPLPLIKSYLFQLLQGLAFCHSHRVLHRDLKPQNLLINTEGAIKLADFGLARAFGVPVRTYTHEVVTLWYRAPEILLGCKYYSTAVDIWSLGCIFAEMVTRRALFPGDSEIDQLFRIFRTLGTPDEVVWPGVTSMPDYKPSFPKWARQDFSKVVPPLDEDGRSLLSQMLHYDPNKRISAKAALAHPFFQDVTKPVPHLRL

> <PDB ID(s) of Target Chain>
1CKP,1DI8,1DM2,1E1V,1E1X,1E9H,1F5Q,1FIN,1FQ1,1FVT,1FVV,1G5S,1GIH,1GY3,1GZ8,1H00,1H01,1H07,1H08,1H0V,1H0W,1H1P,1H1Q,1H1R,1H1S,1H24,1H25,1H26,1H27,1H28,1HCK,1HCL,1JST,1JSU,1JSV,1JVP,1KE5,1KE6,1KE7,1KE8,1KE9,1OGU,1OI9,1OIQ,1OIR,1OIU,1OIY,1OKV,1OKW,1OL1,1OL2,1P2A,1P5E,1PF8,1PKD,1PW2,1PXI,1PXJ,1PXK,1PXL,1PXM,1PXN,1PXO,1PXP,1PYE,1QMZ,1R78,1URC,1URW,1V1K,1VYW,1VYZ,1W0X,1W8C,1W98,1WCC,1Y8Y,1Y91,1YKR,2A0C,2A4L,2B52,2B53,2B54,2B55,2BHE,2BHH,2BKZ,2BPM,2BTR,2BTS,2C4G,2C5N,2C5O,2C5V,2C5X,2C5Y,2C68,2C69,2C6I,2C6K,2C6L,2C6M,2C6O,2C6T,2CCH,2CCI,2CJM,2CLX,2DUV,2EXM,2FVD,2G9X,2I40,2J9M,2JGZ,2R3F,2R3G,2R3H,2R3I,2R3J,2R3K,2R3L,2R3M,2R3N,2R3O,2R3P,2R3Q,2R3R,2R64,2UUE,2UZB,2UZD,2UZE,2UZL,2UZN,2UZO,2V0D,2V22,2VTA,2VTH,2VTI,2VTJ,2VTL,2VTM,2VTN,2VTO,2VTP,2VTQ,2VTR,2VTS,2VTT,2VU3,2VV9,2W05,2W06,2W17,2W1H,2WEV,2WFY,2WHB,2WIH,2WIP,2WMA,2WMB,2WPA,2WXV,2X1N,2XMY,2XNB,3BHT,3BHU,3BHV,3DDP,3DDQ,3DOG,3EID,3EJ1,3EOC,3EZR,3EZV,3F5X,3FZ1,3IG7,3IGG,3LE6,3LFN,3LFQ,3LFS,3MY5,3NS9,3PJ8,3PXF,3PXQ,3PXR,3PXY,3PXZ,3PY0,3PY1,3QHR,3QHW,3QL8,3QQF,3QQG,3QQH,3QQJ,3QQK,3QQL,3QRT,3QRU,3QTQ,3QTR,3QTS,3QTU,3QTW,3QTX,3QTZ,3QU0,3QWJ,3QWK,3QX2,3QX4,3QXO,3QXP,3QZF,3QZG,3QZH,3QZI,3R1Q,3R1S,3R1Y,3R28,3R6X,3R71,3R73,3R7E,3R7I,3R7U,3R7V,3R7Y,3R83,3R8L,3R8M,3R8P,3R8U,3R8V,3R8Z,3R9D,3R9H,3R9N,3R9O,3RAH,3RAI,3RAK,3RAL,3RJC,3RK5,3RK7,3RK9,3RKB,3RM6,3RM7,3RMF,3RNI,3ROY,3RPO,3RPR,3RPV,3RPY,3RZB,3S00,3S0O,3S1H,3S2P,3SQQ,3SW4,3SW7,3TI1,3TIY,3TIZ,3TNW,3ULI,3UNJ,3UNK,3WBL,4ACM,4BCK,4BCM,4BCN,4BCO,4BCP,4BCQ,4BGH,4BZD,4CFM,4CFN,4CFU,4CFV,4CFW,4CFX,4D1X,4D1Z,4EK3,4EK4,4EK5,4EK6,4EK8,4EOQ,4EOR,4EOS,4ERW,4EZ3,4EZ7,4FKG,4FKI,4FKJ,4FKL,4FKO,4FKP,4FKQ,4FKR,4FKS,4FKT,4FKU,4FKV,4FKW,4FX3,4GCJ,4I3Z,4II5,4KD1,4LYN,4NJ3,4RJ3,5A14,5AND,5ANE,5ANG,5ANI,5ANJ,5ANK,5ANO,5CYI,5D1J,5FP5,5FP6,5IEV,5IEX,5IEY,5IF1,5JQ5,5JQ8,5K4J,5L2W,5LMK,5MHQ,5NEV,5OO0,5OSJ,5UQ1,5UQ2,5UQ3,6ATH,6GUB,6GUC,6GUE,6GUF,6GUH,6GUK,6GVA,6INL,6JGM,6OQI,6P3W,6Q3B,6Q3C,6Q3F,6Q48,6Q49,6Q4A,6Q4B,6Q4C,6Q4D,6Q4E,6Q4F,6Q4H,6Q4J,6Q4K,6RIJ,6SG4,7ACK,7B5L,7B5R,7B7S,7E34,7KJS,7M2F,7NVQ

> <UniProt (SwissProt) Recommended Name of Target Chain>
Cyclin-dependent kinase 2

> <UniProt (SwissProt) Entry Name of Target Chain>
CDK2_HUMAN

> <UniProt (SwissProt) Primary ID of Target Chain>
P24941

> <UniProt (SwissProt) Secondary ID(s) of Target Chain>
A8K7C6,O75100

> <UniProt (SwissProt) Alternative ID(s) of Target Chain>


> <UniProt (TrEMBL) Submitted Name of Target Chain>


> <UniProt (TrEMBL) Entry Name of Target Chain>


> <UniProt (TrEMBL) Primary ID of Target Chain>
A0A024RB77

> <UniProt (TrEMBL) Secondary ID(s) of Target Chain>


> <UniProt (TrEMBL) Alternative ID(s) of Target Chain>


$$$$
ttt_mol_1

Vconf v2.1
 51 55  0  0  0  0  0  0  0  0999 V2000
    1.4000    5.0960    0.9600 C   0  0  0  0  0  0  0  0  0  0  0
    2.0180    6.2700    1.4420 C   0  0  0  0  0  0  0  0  0  0  0
    3.1990    6.6950    0.9150 N   0  0  0  0  0  0  0  0  0  0  0
    2.0190    4.3670   -0.0750 C   0  0  0  0  0  0  0  0  0  0  0
    3.2370    4.8350   -0.5980 C   0  0  0  0  0  0  0  0  0  0  0
    3.8000    6.0000   -0.0800 C   0  0  0  0  0  0  0  0  0  0  0
    4.9470    6.2480   -0.7230 N   0  0  0  0  0  0  0  0  0  0  0
    5.1450    5.2850   -1.6390 C   0  0  0  0  0  0  0  0  0  0  0
    4.0890    4.3690   -1.6010 C   0  0  0  0  0  0  0  0  0  0  0
    3.9560    3.2300   -2.4190 C   0  0  0  0  0  0  0  0  0  0  0
    2.8880    2.4040   -2.3060 N   0  0  0  0  0  0  0  0  0  0  0
    2.7290    1.2950   -3.0700 C   0  0  0  0  0  0  0  0  0  0  0
    3.7040    0.9760   -4.0300 C   0  0  0  0  0  0  0  0  0  0  0
    4.8040    1.8370   -4.1440 C   0  0  0  0  0  0  0  0  0  0  0
    4.9000    2.9270   -3.3450 N   0  0  0  0  0  0  0  0  0  0  0
    3.6030   -0.0780   -4.7930 F   0  0  0  0  0  0  0  0  0  0  0
    1.6470    0.4990   -2.9130 N   0  0  0  0  0  0  0  0  0  0  0
    0.5960    0.7290   -1.9790 C   0  0  1  0  0  0  0  0  0  0  0
   -0.7400    0.9020   -2.7330 C   0  0  2  0  0  0  0  0  0  0  0
   -1.8420    1.1860   -1.6920 C   0  0  0  0  0  0  0  0  0  0  0
   -1.9870   -0.0130   -0.7300 C   0  0  0  0  0  0  0  0  0  0  0
   -0.9200   -1.0800   -1.0450 C   0  0  2  0  0  0  0  0  0  0  0
    0.4920   -0.4570   -0.9880 C   0  0  2  0  0  0  0  0  0  0  0
    0.2700    4.6920    1.4660 F   0  0  0  0  0  0  0  0  0  0  0
    0.8860    0.0780    0.6900 S   0  0  0  0  0  0  0  0  0  0  0
    2.6440    0.4590    0.6980 C   0  0  0  0  0  0  0  0  0  0  0
    0.1720    1.4660    0.9930 O   0  0  0  0  0  0  0  0  0  0  0
    0.7460   -1.2130    1.6060 O   0  0  0  0  0  0  0  0  0  0  0
   -1.0990   -0.4020   -3.4760 C   0  0  0  0  0  0  0  0  0  0  0
   -1.1600   -1.5830   -2.4820 C   0  0  0  0  0  0  0  0  0  0  0
    1.5800    6.8070    2.1910 H   0  0  0  0  0  0  0  0  0  0  0
    1.5850    3.5170   -0.4330 H   0  0  0  0  0  0  0  0  0  0  0
    5.5370    6.9990   -0.5540 H   0  0  0  0  0  0  0  0  0  0  0
    5.9480    5.2340   -2.2680 H   0  0  0  0  0  0  0  0  0  0  0
    5.5370    1.6460   -4.8270 H   0  0  0  0  0  0  0  0  0  0  0
    1.5810   -0.2850   -3.4820 H   0  0  0  0  0  0  0  0  0  0  0
    0.7720    1.6420   -1.4100 H   0  0  0  0  0  0  0  0  0  0  0
   -0.6710    1.7320   -3.4370 H   0  0  0  0  0  0  0  0  0  0  0
   -1.5810    2.0800   -1.1230 H   0  0  0  0  0  0  0  0  0  0  0
   -2.7900    1.3600   -2.2030 H   0  0  0  0  0  0  0  0  0  0  0
   -1.8850    0.3240    0.3010 H   0  0  0  0  0  0  0  0  0  0  0
   -2.9780   -0.4530   -0.8510 H   0  0  0  0  0  0  0  0  0  0  0
   -0.9950   -1.9080   -0.3400 H   0  0  0  0  0  0  0  0  0  0  0
    1.2120   -1.2310   -1.2590 H   0  0  0  0  0  0  0  0  0  0  0
    2.9540    0.7060    1.7120 H   0  0  0  0  0  0  0  0  0  0  0
    3.2050   -0.4070    0.3450 H   0  0  0  0  0  0  0  0  0  0  0
    2.8360    1.3080    0.0450 H   0  0  0  0  0  0  0  0  0  0  0
   -2.0710   -0.2840   -3.9580 H   0  0  0  0  0  0  0  0  0  0  0
   -0.3530   -0.6070   -4.2430 H   0  0  0  0  0  0  0  0  0  0  0
   -2.1400   -2.0580   -2.5410 H   0  0  0  0  0  0  0  0  0  0  0
   -0.3980   -2.3190   -2.7420 H   0  0  0  0  0  0  0  0  0  0  0
  1  2  2  0  0  0  0
  1  4  1  0  0  0  0
  1 24  1  0  0  0  0
  2  3  1  0  0  0  0
  2 31  1  0  0  0  0
  3  6  2  0  0  0  0
  4  5  2  0  0  0  0
  4 32  1  0  0  0  0
  5  6  1  0  0  0  0
  5  9  1  0  0  0  0
  6  7  1  0  0  0  0
  7  8  1  0  0  0  0
  7 33  1  0  0  0  0
  8  9  2  0  0  0  0
  8 34  1  0  0  0  0
  9 10  1  0  0  0  0
 10 11  2  0  0  0  0
 10 15  1  0  0  0  0
 11 12  1  0  0  0  0
 12 13  2  0  0  0  0
 12 17  1  0  0  0  0
 13 14  1  0  0  0  0
 13 16  1  0  0  0  0
 14 15  2  0  0  0  0
 14 35  1  0  0  0  0
 18 17  1  1  0  0  0
 17 36  1  0  0  0  0
 18 19  1  0  0  0  0
 18 23  1  0  0  0  0
 18 37  1  0  0  0  0
 19 20  1  0  0  0  0
 19 29  1  0  0  0  0
 19 38  1  0  0  0  0
 20 21  1  0  0  0  0
 20 39  1  0  0  0  0
 20 40  1  0  0  0  0
 21 22  1  0  0  0  0
 21 41  1  0  0  0  0
 21 42  1  0  0  0  0
 22 23  1  0  0  0  0
 22 30  1  0  0  0  0
 22 43  1  0  0  0  0
 23 25  1  6  0  0  0
 23 44  1  0  0  0  0
 25 26  1  0  0  0  0
 25 27  2  0  0  0  0
 25 28  2  0  0  0  0
 26 45  1  0  0  0  0
 26 46  1  0  0  0  0
 26 47  1  0  0  0  0
 29 30  1  0  0  0  0
 29 48  1  0  0  0  0
 29 49  1  0  0  0  0
 30 50  1  0  0  0  0
 30 51  1  0  0  0  0
M  END
> <From>
www.bindingDB.org

> <BindingDB Reactant_set_id>
50304511

> <Ligand InChI>
InChI=1S/C20H21F2N5O2S/c1-30(28,29)17-11-4-2-10(3-5-11)16(17)26-20-15(22)9-25-19(27-20)14-8-24-18-13(14)6-12(21)7-23-18/h6-11,16-17H,2-5H2,1H3,(H,23,24)(H,25,26,27)/t10?,11?,16-,17-/m0/s1

> <Ligand InChI Key>
PMGPBZHUTBKGCZ-VOGSPBGVSA-N

> <BindingDB MonomerID>
50067540

> <BindingDB Ligand Name>
CHEMBL3401990

> <Target Name Assigned by Curator or DataSource>
Cyclin-dependent kinase 2

> <Target Source Organism According to Curator or DataSource>
Homo sapiens

> <Ki (nM)>
>4000

> <IC50 (nM)>


> <Kd (nM)>


> <EC50 (nM)>


> <kon (M-1-s-1)>


> <koff (s-1)>


> <pH>


> <Temp C>


> <Curation/DataSource>
ChEMBL

> <Article DOI>
10.1016/j.bmcl.2015.03.013

> <PMID>
25827523

> <PubChem AID>


> <Patent Number>


> <Authors>
Boyd, MJ; Bandarage, UK; Bennett, H; Byrn, RR; Davies, I; Gu, W; Jacobs, M; Ledeboer, MW; Ledford, B; Leeman, JR; Perola, E; Wang, T; Bennani, Y; Clark, MP; Charifson, PS

> <Institution>
Vertex Pharmaceuticals Inc

> <Link to Ligand in BindingDB>
http://www.bindingdb.org/bind/chemsearch/marvin/MolStructure.jsp?monomerid=50067540

> <Link to Ligand-Target Pair in BindingDB>
http://www.bindingdb.org/jsp/dbsearch/PrimarySearch_ki.jsp?energyterm=kJ/mole&tag=pol&polymerid=796&target=Cyclin-dependent+kinase+2&column=ki&startPg=0&Increment=50&submit=Search

> <Link to Ligand-Target Pair in BindingDB>
http://www.bindingdb.org/jsp/dbsearch/PrimarySearch_ki.jsp?energyterm=kJ/mole&tag=r21&monomerid=50067540&enzyme=Cyclin-dependent+kinase+2&column=ki&startPg=0&Increment=50&submit=Search

> <Ligand HET ID in PDB>


> <PDB ID(s) for Ligand-Target Complex>


> <PubChem CID>
118728826

> <PubChem SID>
103961979

> <ChEBI ID of Ligand>


> <ChEMBL ID of Ligand>
CHEMBL3401990

> <DrugBank ID of Ligand>


> <IUPHAR_GRAC ID of Ligand>


> <KEGG ID of Ligand>


> <ZINC ID of Ligand>
ZINC27432272

> <Number of Protein Chains in Target (bigger than 1 implies a multichain complex)>
1

> <BindingDB Target Chain Sequence>
MENFQKVEKIGEGTYGVVYKARNKLTGEVVALKKIRLDTETEGVPSTAIREISLLKELNHPNIVKLLDVIHTENKLYLVFEFLHQDLKKFMDASALTGIPLPLIKSYLFQLLQGLAFCHSHRVLHRDLKPQNLLINTEGAIKLADFGLARAFGVPVRTYTHEVVTLWYRAPEILLGCKYYSTAVDIWSLGCIFAEMVTRRALFPGDSEIDQLFRIFRTLGTPDEVVWPGVTSMPDYKPSFPKWARQDFSKVVPPLDEDGRSLLSQMLHYDPNKRISAKAALAHPFFQDVTKPVPHLRL

> <PDB ID(s) of Target Chain>
1CKP,1DI8,1DM2,1E1V,1E1X,1E9H,1F5Q,1FIN,1FQ1,1FVT,1FVV,1G5S,1GIH,1GY3,1GZ8,1H00,1H01,1H07,1H08,1H0V,1H0W,1H1P,1H1Q,1H1R,1H1S,1H24,1H25,1H26,1H27,1H28,1HCK,1HCL,1JST,1JSU,1JSV,1JVP,1KE5,1KE6,1KE7,1KE8,1KE9,1OGU,1OI9,1OIQ,1OIR,1OIU,1OIY,1OKV,1OKW,1OL1,1OL2,1P2A,1P5E,1PF8,1PKD,1PW2,1PXI,1PXJ,1PXK,1PXL,1PXM,1PXN,1PXO,1PXP,1PYE,1QMZ,1R78,1URC,1URW,1V1K,1VYW,1VYZ,1W0X,1W8C,1W98,1WCC,1Y8Y,1Y91,1YKR,2A0C,2A4L,2B52,2B53,2B54,2B55,2BHE,2BHH,2BKZ,2BPM,2BTR,2BTS,2C4G,2C5N,2C5O,2C5V,2C5X,2C5Y,2C68,2C69,2C6I,2C6K,2C6L,2C6M,2C6O,2C6T,2CCH,2CCI,2CJM,2CLX,2DUV,2EXM,2FVD,2G9X,2I40,2J9M,2JGZ,2R3F,2R3G,2R3H,2R3I,2R3J,2R3K,2R3L,2R3M,2R3N,2R3O,2R3P,2R3Q,2R3R,2R64,2UUE,2UZB,2UZD,2UZE,2UZL,2UZN,2UZO,2V0D,2V22,2VTA,2VTH,2VTI,2VTJ,2VTL,2VTM,2VTN,2VTO,2VTP,2VTQ,2VTR,2VTS,2VTT,2VU3,2VV9,2W05,2W06,2W17,2W1H,2WEV,2WFY,2WHB,2WIH,2WIP,2WMA,2WMB,2WPA,2WXV,2X1N,2XMY,2XNB,3BHT,3BHU,3BHV,3DDP,3DDQ,3DOG,3EID,3EJ1,3EOC,3EZR,3EZV,3F5X,3FZ1,3IG7,3IGG,3LE6,3LFN,3LFQ,3LFS,3MY5,3NS9,3PJ8,3PXF,3PXQ,3PXR,3PXY,3PXZ,3PY0,3PY1,3QHR,3QHW,3QL8,3QQF,3QQG,3QQH,3QQJ,3QQK,3QQL,3QRT,3QRU,3QTQ,3QTR,3QTS,3QTU,3QTW,3QTX,3QTZ,3QU0,3QWJ,3QWK,3QX2,3QX4,3QXO,3QXP,3QZF,3QZG,3QZH,3QZI,3R1Q,3R1S,3R1Y,3R28,3R6X,3R71,3R73,3R7E,3R7I,3R7U,3R7V,3R7Y,3R83,3R8L,3R8M,3R8P,3R8U,3R8V,3R8Z,3R9D,3R9H,3R9N,3R9O,3RAH,3RAI,3RAK,3RAL,3RJC,3RK5,3RK7,3RK9,3RKB,3RM6,3RM7,3RMF,3RNI,3ROY,3RPO,3RPR,3RPV,3RPY,3RZB,3S00,3S0O,3S1H,3S2P,3SQQ,3SW4,3SW7,3TI1,3TIY,3TIZ,3TNW,3ULI,3UNJ,3UNK,3WBL,4ACM,4BCK,4BCM,4BCN,4BCO,4BCP,4BCQ,4BGH,4BZD,4CFM,4CFN,4CFU,4CFV,4CFW,4CFX,4D1X,4D1Z,4EK3,4EK4,4EK5,4EK6,4EK8,4EOQ,4EOR,4EOS,4ERW,4EZ3,4EZ7,4FKG,4FKI,4FKJ,4FKL,4FKO,4FKP,4FKQ,4FKR,4FKS,4FKT,4FKU,4FKV,4FKW,4FX3,4GCJ,4I3Z,4II5,4KD1,4LYN,4NJ3,4RJ3,5A14,5AND,5ANE,5ANG,5ANI,5ANJ,5ANK,5ANO,5CYI,5D1J,5FP5,5FP6,5IEV,5IEX,5IEY,5IF1,5JQ5,5JQ8,5K4J,5L2W,5LMK,5MHQ,5NEV,5OO0,5OSJ,5UQ1,5UQ2,5UQ3,6ATH,6GUB,6GUC,6GUE,6GUF,6GUH,6GUK,6GVA,6INL,6JGM,6OQI,6P3W,6Q3B,6Q3C,6Q3F,6Q48,6Q49,6Q4A,6Q4B,6Q4C,6Q4D,6Q4E,6Q4F,6Q4H,6Q4J,6Q4K,6RIJ,6SG4,7ACK,7B5L,7B5R,7B7S,7E34,7KJS,7M2F,7NVQ

> <UniProt (SwissProt) Recommended Name of Target Chain>
Cyclin-dependent kinase 2

> <UniProt (SwissProt) Entry Name of Target Chain>
CDK2_HUMAN

> <UniProt (SwissProt) Primary ID of Target Chain>
P24941

> <UniProt (SwissProt) Secondary ID(s) of Target Chain>
A8K7C6,O75100

> <UniProt (SwissProt) Alternative ID(s) of Target Chain>


> <UniProt (TrEMBL) Submitted Name of Target Chain>


> <UniProt (TrEMBL) Entry Name of Target Chain>


> <UniProt (TrEMBL) Primary ID of Target Chain>
A0A024RB77

> <UniProt (TrEMBL) Secondary ID(s) of Target Chain>


> <UniProt (TrEMBL) Alternative ID(s) of Target Chain>


$$$$
ttt_mol_1

Vconf v2.1
 52 56  0  0  0  0  0  0  0  0999 V2000
   -2.3960    0.1180    0.3040 C   0  0  0  0  0  0  0  0  0  0  0
   -3.2340   -0.9980    0.5110 C   0  0  0  0  0  0  0  0  0  0  0
   -2.7020   -2.2150    0.8120 N   0  0  0  0  0  0  0  0  0  0  0
   -1.0000   -0.0390    0.4140 C   0  0  0  0  0  0  0  0  0  0  0
   -0.4840   -1.3090    0.7240 C   0  0  0  0  0  0  0  0  0  0  0
   -1.3610   -2.3740    0.9170 C   0  0  0  0  0  0  0  0  0  0  0
   -0.6500   -3.4730    1.1970 N   0  0  0  0  0  0  0  0  0  0  0
    0.6560   -3.1540    1.1900 C   0  0  0  0  0  0  0  0  0  0  0
    0.8120   -1.7970    0.8960 C   0  0  0  0  0  0  0  0  0  0  0
    2.0370   -1.1080    0.7980 C   0  0  0  0  0  0  0  0  0  0  0
    2.0790    0.2150    0.5060 N   0  0  0  0  0  0  0  0  0  0  0
    3.2390    0.9080    0.3970 C   0  0  0  0  0  0  0  0  0  0  0
    4.4610    0.2420    0.5890 C   0  0  0  0  0  0  0  0  0  0  0
    4.4090   -1.1260    0.8930 C   0  0  0  0  0  0  0  0  0  0  0
    3.2130   -1.7560    0.9870 N   0  0  0  0  0  0  0  0  0  0  0
    5.6080    0.8570    0.4900 F   0  0  0  0  0  0  0  0  0  0  0
    3.2280    2.2240    0.0830 N   0  0  0  0  0  0  0  0  0  0  0
    2.0490    3.0000   -0.1210 C   0  0  1  0  0  0  0  0  0  0  0
    2.1220    4.2820    0.7380 C   0  0  2  0  0  0  0  0  0  0  0
    0.7600    4.9960    0.6360 C   0  0  0  0  0  0  0  0  0  0  0
    0.4210    5.2790   -0.8440 C   0  0  0  0  0  0  0  0  0  0  0
    1.6100    4.8900   -1.7500 C   0  0  2  0  0  0  0  0  0  0  0
    1.9160    3.3750   -1.6250 C   0  0  2  0  0  0  0  0  0  0  0
   -2.9040    1.2820    0.0120 F   0  0  0  0  0  0  0  0  0  0  0
    0.9370    2.5140   -2.3180 C   0  0  0  0  0  0  0  0  0  0  0
    1.0820    1.1740   -2.2500 N   0  0  0  0  0  0  0  0  0  0  0
   -0.0100    3.0110   -2.9680 O   0  0  0  0  0  0  0  0  0  0  0
    0.1990    0.2690   -2.8920 C   0  0  0  0  0  0  0  0  0  0  0
    3.2060    5.2300    0.1840 C   0  0  0  0  0  0  0  0  0  0  0
    2.8500    5.6620   -1.2550 C   0  0  0  0  0  0  0  0  0  0  0
   -4.2470   -0.8970    0.4350 H   0  0  0  0  0  0  0  0  0  0  0
   -0.3810    0.7570    0.2630 H   0  0  0  0  0  0  0  0  0  0  0
   -1.0180   -4.3530    1.3730 H   0  0  0  0  0  0  0  0  0  0  0
    1.4170   -3.8100    1.3720 H   0  0  0  0  0  0  0  0  0  0  0
    5.2700   -1.6530    1.0410 H   0  0  0  0  0  0  0  0  0  0  0
    4.0840    2.6680   -0.0220 H   0  0  0  0  0  0  0  0  0  0  0
    1.1630    2.4530    0.2080 H   0  0  0  0  0  0  0  0  0  0  0
    2.3330    4.0320    1.7780 H   0  0  0  0  0  0  0  0  0  0  0
    0.8020    5.9370    1.1870 H   0  0  0  0  0  0  0  0  0  0  0
   -0.0170    4.3670    1.0730 H   0  0  0  0  0  0  0  0  0  0  0
   -0.4630    4.7070   -1.1300 H   0  0  0  0  0  0  0  0  0  0  0
    0.2030    6.3400   -0.9690 H   0  0  0  0  0  0  0  0  0  0  0
    1.4010    5.1620   -2.7860 H   0  0  0  0  0  0  0  0  0  0  0
    2.8760    3.2030   -2.1160 H   0  0  0  0  0  0  0  0  0  0  0
    1.8150    0.8160   -1.7250 H   0  0  0  0  0  0  0  0  0  0  0
    0.5070   -0.7510   -2.6640 H   0  0  0  0  0  0  0  0  0  0  0
   -0.8200    0.4220   -2.5350 H   0  0  0  0  0  0  0  0  0  0  0
    0.2310    0.4200   -3.9720 H   0  0  0  0  0  0  0  0  0  0  0
    3.2760    6.1120    0.8210 H   0  0  0  0  0  0  0  0  0  0  0
    4.1710    4.7210    0.1850 H   0  0  0  0  0  0  0  0  0  0  0
    2.6390    6.7330   -1.2720 H   0  0  0  0  0  0  0  0  0  0  0
    3.6950    5.4620   -1.9150 H   0  0  0  0  0  0  0  0  0  0  0
  1  2  2  0  0  0  0
  1  4  1  0  0  0  0
  1 24  1  0  0  0  0
  2  3  1  0  0  0  0
  2 31  1  0  0  0  0
  3  6  2  0  0  0  0
  4  5  2  0  0  0  0
  4 32  1  0  0  0  0
  5  6  1  0  0  0  0
  5  9  1  0  0  0  0
  6  7  1  0  0  0  0
  7  8  1  0  0  0  0
  7 33  1  0  0  0  0
  8  9  2  0  0  0  0
  8 34  1  0  0  0  0
  9 10  1  0  0  0  0
 10 11  2  0  0  0  0
 10 15  1  0  0  0  0
 11 12  1  0  0  0  0
 12 13  2  0  0  0  0
 12 17  1  0  0  0  0
 13 14  1  0  0  0  0
 13 16  1  0  0  0  0
 14 15  2  0  0  0  0
 14 35  1  0  0  0  0
 18 17  1  1  0  0  0
 17 36  1  0  0  0  0
 18 19  1  0  0  0  0
 18 23  1  0  0  0  0
 18 37  1  0  0  0  0
 19 20  1  0  0  0  0
 19 29  1  0  0  0  0
 19 38  1  0  0  0  0
 20 21  1  0  0  0  0
 20 39  1  0  0  0  0
 20 40  1  0  0  0  0
 21 22  1  0  0  0  0
 21 41  1  0  0  0  0
 21 42  1  0  0  0  0
 22 23  1  0  0  0  0
 22 30  1  0  0  0  0
 22 43  1  0  0  0  0
 23 25  1  6  0  0  0
 23 44  1  0  0  0  0
 25 26  1  0  0  0  0
 25 27  2  0  0  0  0
 26 28  1  0  0  0  0
 26 45  1  0  0  0  0
 28 46  1  0  0  0  0
 28 47  1  0  0  0  0
 28 48  1  0  0  0  0
 29 30  1  0  0  0  0
 29 49  1  0  0  0  0
 29 50  1  0  0  0  0
 30 51  1  0  0  0  0
 30 52  1  0  0  0  0
M  END
> <From>
www.bindingDB.org

> <BindingDB Reactant_set_id>
50304509

> <Ligand InChI>
InChI=1S/C21H22F2N6O/c1-24-21(30)16-10-2-4-11(5-3-10)17(16)28-20-15(23)9-27-19(29-20)14-8-26-18-13(14)6-12(22)7-25-18/h6-11,16-17H,2-5H2,1H3,(H,24,30)(H,25,26)(H,27,28,29)/t10?,11?,16-,17-/m0/s1

> <Ligand InChI Key>
FQAOJJZIGINGIO-VOGSPBGVSA-N

> <BindingDB MonomerID>
50067535

> <BindingDB Ligand Name>
CHEMBL3401986

> <Target Name Assigned by Curator or DataSource>
Cyclin-dependent kinase 2

> <Target Source Organism According to Curator or DataSource>
Homo sapiens

> <Ki (nM)>
>4000

> <IC50 (nM)>


> <Kd (nM)>


> <EC50 (nM)>


> <kon (M-1-s-1)>


> <koff (s-1)>


> <pH>


> <Temp C>


> <Curation/DataSource>
ChEMBL

> <Article DOI>
10.1016/j.bmcl.2015.03.013

> <PMID>
25827523

> <PubChem AID>


> <Patent Number>


> <Authors>
Boyd, MJ; Bandarage, UK; Bennett, H; Byrn, RR; Davies, I; Gu, W; Jacobs, M; Ledeboer, MW; Ledford, B; Leeman, JR; Perola, E; Wang, T; Bennani, Y; Clark, MP; Charifson, PS

> <Institution>
Vertex Pharmaceuticals Inc

> <Link to Ligand in BindingDB>
http://www.bindingdb.org/bind/chemsearch/marvin/MolStructure.jsp?monomerid=50067535

> <Link to Ligand-Target Pair in BindingDB>
http://www.bindingdb.org/jsp/dbsearch/PrimarySearch_ki.jsp?energyterm=kJ/mole&tag=pol&polymerid=796&target=Cyclin-dependent+kinase+2&column=ki&startPg=0&Increment=50&submit=Search

> <Link to Ligand-Target Pair in BindingDB>
http://www.bindingdb.org/jsp/dbsearch/PrimarySearch_ki.jsp?energyterm=kJ/mole&tag=r21&monomerid=50067535&enzyme=Cyclin-dependent+kinase+2&column=ki&startPg=0&Increment=50&submit=Search

> <Ligand HET ID in PDB>


> <PDB ID(s) for Ligand-Target Complex>


> <PubChem CID>
118728822

> <PubChem SID>
103961974

> <ChEBI ID of Ligand>


> <ChEMBL ID of Ligand>
CHEMBL3401986

> <DrugBank ID of Ligand>


> <IUPHAR_GRAC ID of Ligand>


> <KEGG ID of Ligand>


> <ZINC ID of Ligand>
ZINC03781115

> <Number of Protein Chains in Target (bigger than 1 implies a multichain complex)>
1

> <BindingDB Target Chain Sequence>
MENFQKVEKIGEGTYGVVYKARNKLTGEVVALKKIRLDTETEGVPSTAIREISLLKELNHPNIVKLLDVIHTENKLYLVFEFLHQDLKKFMDASALTGIPLPLIKSYLFQLLQGLAFCHSHRVLHRDLKPQNLLINTEGAIKLADFGLARAFGVPVRTYTHEVVTLWYRAPEILLGCKYYSTAVDIWSLGCIFAEMVTRRALFPGDSEIDQLFRIFRTLGTPDEVVWPGVTSMPDYKPSFPKWARQDFSKVVPPLDEDGRSLLSQMLHYDPNKRISAKAALAHPFFQDVTKPVPHLRL

> <PDB ID(s) of Target Chain>
1CKP,1DI8,1DM2,1E1V,1E1X,1E9H,1F5Q,1FIN,1FQ1,1FVT,1FVV,1G5S,1GIH,1GY3,1GZ8,1H00,1H01,1H07,1H08,1H0V,1H0W,1H1P,1H1Q,1H1R,1H1S,1H24,1H25,1H26,1H27,1H28,1HCK,1HCL,1JST,1JSU,1JSV,1JVP,1KE5,1KE6,1KE7,1KE8,1KE9,1OGU,1OI9,1OIQ,1OIR,1OIU,1OIY,1OKV,1OKW,1OL1,1OL2,1P2A,1P5E,1PF8,1PKD,1PW2,1PXI,1PXJ,1PXK,1PXL,1PXM,1PXN,1PXO,1PXP,1PYE,1QMZ,1R78,1URC,1URW,1V1K,1VYW,1VYZ,1W0X,1W8C,1W98,1WCC,1Y8Y,1Y91,1YKR,2A0C,2A4L,2B52,2B53,2B54,2B55,2BHE,2BHH,2BKZ,2BPM,2BTR,2BTS,2C4G,2C5N,2C5O,2C5V,2C5X,2C5Y,2C68,2C69,2C6I,2C6K,2C6L,2C6M,2C6O,2C6T,2CCH,2CCI,2CJM,2CLX,2DUV,2EXM,2FVD,2G9X,2I40,2J9M,2JGZ,2R3F,2R3G,2R3H,2R3I,2R3J,2R3K,2R3L,2R3M,2R3N,2R3O,2R3P,2R3Q,2R3R,2R64,2UUE,2UZB,2UZD,2UZE,2UZL,2UZN,2UZO,2V0D,2V22,2VTA,2VTH,2VTI,2VTJ,2VTL,2VTM,2VTN,2VTO,2VTP,2VTQ,2VTR,2VTS,2VTT,2VU3,2VV9,2W05,2W06,2W17,2W1H,2WEV,2WFY,2WHB,2WIH,2WIP,2WMA,2WMB,2WPA,2WXV,2X1N,2XMY,2XNB,3BHT,3BHU,3BHV,3DDP,3DDQ,3DOG,3EID,3EJ1,3EOC,3EZR,3EZV,3F5X,3FZ1,3IG7,3IGG,3LE6,3LFN,3LFQ,3LFS,3MY5,3NS9,3PJ8,3PXF,3PXQ,3PXR,3PXY,3PXZ,3PY0,3PY1,3QHR,3QHW,3QL8,3QQF,3QQG,3QQH,3QQJ,3QQK,3QQL,3QRT,3QRU,3QTQ,3QTR,3QTS,3QTU,3QTW,3QTX,3QTZ,3QU0,3QWJ,3QWK,3QX2,3QX4,3QXO,3QXP,3QZF,3QZG,3QZH,3QZI,3R1Q,3R1S,3R1Y,3R28,3R6X,3R71,3R73,3R7E,3R7I,3R7U,3R7V,3R7Y,3R83,3R8L,3R8M,3R8P,3R8U,3R8V,3R8Z,3R9D,3R9H,3R9N,3R9O,3RAH,3RAI,3RAK,3RAL,3RJC,3RK5,3RK7,3RK9,3RKB,3RM6,3RM7,3RMF,3RNI,3ROY,3RPO,3RPR,3RPV,3RPY,3RZB,3S00,3S0O,3S1H,3S2P,3SQQ,3SW4,3SW7,3TI1,3TIY,3TIZ,3TNW,3ULI,3UNJ,3UNK,3WBL,4ACM,4BCK,4BCM,4BCN,4BCO,4BCP,4BCQ,4BGH,4BZD,4CFM,4CFN,4CFU,4CFV,4CFW,4CFX,4D1X,4D1Z,4EK3,4EK4,4EK5,4EK6,4EK8,4EOQ,4EOR,4EOS,4ERW,4EZ3,4EZ7,4FKG,4FKI,4FKJ,4FKL,4FKO,4FKP,4FKQ,4FKR,4FKS,4FKT,4FKU,4FKV,4FKW,4FX3,4GCJ,4I3Z,4II5,4KD1,4LYN,4NJ3,4RJ3,5A14,5AND,5ANE,5ANG,5ANI,5ANJ,5ANK,5ANO,5CYI,5D1J,5FP5,5FP6,5IEV,5IEX,5IEY,5IF1,5JQ5,5JQ8,5K4J,5L2W,5LMK,5MHQ,5NEV,5OO0,5OSJ,5UQ1,5UQ2,5UQ3,6ATH,6GUB,6GUC,6GUE,6GUF,6GUH,6GUK,6GVA,6INL,6JGM,6OQI,6P3W,6Q3B,6Q3C,6Q3F,6Q48,6Q49,6Q4A,6Q4B,6Q4C,6Q4D,6Q4E,6Q4F,6Q4H,6Q4J,6Q4K,6RIJ,6SG4,7ACK,7B5L,7B5R,7B7S,7E34,7KJS,7M2F,7NVQ

> <UniProt (SwissProt) Recommended Name of Target Chain>
Cyclin-dependent kinase 2

> <UniProt (SwissProt) Entry Name of Target Chain>
CDK2_HUMAN

> <UniProt (SwissProt) Primary ID of Target Chain>
P24941

> <UniProt (SwissProt) Secondary ID(s) of Target Chain>
A8K7C6,O75100

> <UniProt (SwissProt) Alternative ID(s) of Target Chain>


> <UniProt (TrEMBL) Submitted Name of Target Chain>


> <UniProt (TrEMBL) Entry Name of Target Chain>


> <UniProt (TrEMBL) Primary ID of Target Chain>
A0A024RB77

> <UniProt (TrEMBL) Secondary ID(s) of Target Chain>


> <UniProt (TrEMBL) Alternative ID(s) of Target Chain>


$$$$
ttt_mol_1

Vconf v2.1
 53 58  0  0  0  0  0  0  0  0999 V2000
    2.0410    5.1130    0.3940 C   0  0  0  0  0  0  0  0  0  0  0
    1.6980    6.4430    0.0680 C   0  0  0  0  0  0  0  0  0  0  0
    0.6720    7.0680    0.7070 N   0  0  0  0  0  0  0  0  0  0  0
    1.3100    4.4390    1.3910 C   0  0  0  0  0  0  0  0  0  0  0
    0.2540    5.1130    2.0300 C   0  0  0  0  0  0  0  0  0  0  0
   -0.0370    6.4260    1.6660 C   0  0  0  0  0  0  0  0  0  0  0
   -1.0710    6.8570    2.3980 N   0  0  0  0  0  0  0  0  0  0  0
   -1.4610    5.8660    3.2190 C   0  0  0  0  0  0  0  0  0  0  0
   -0.6550    4.7410    3.0230 C   0  0  0  0  0  0  0  0  0  0  0
   -0.7750    3.5090    3.6940 C   0  0  0  0  0  0  0  0  0  0  0
    0.0610    2.4780    3.4220 N   0  0  0  0  0  0  0  0  0  0  0
   -0.0310    1.2710    4.0330 C   0  0  0  0  0  0  0  0  0  0  0
   -1.0330    1.0630    4.9960 C   0  0  0  0  0  0  0  0  0  0  0
   -1.8910    2.1360    5.2770 C   0  0  0  0  0  0  0  0  0  0  0
   -1.7420    3.3150    4.6260 N   0  0  0  0  0  0  0  0  0  0  0
   -1.1720   -0.0790    5.6120 F   0  0  0  0  0  0  0  0  0  0  0
    0.8190    0.2700    3.7050 N   0  0  0  0  0  0  0  0  0  0  0
    1.8710    0.3910    2.7520 C   0  0  1  0  0  0  0  0  0  0  0
    3.1830   -0.1700    3.3430 C   0  0  2  0  0  0  0  0  0  0  0
    4.3290    0.2130    2.3850 C   0  0  0  0  0  0  0  0  0  0  0
    4.0040   -0.2740    0.9560 C   0  0  0  0  0  0  0  0  0  0  0
    2.7500   -1.1770    0.9710 C   0  0  2  0  0  0  0  0  0  0  0
    1.5110   -0.3800    1.4510 C   0  0  2  0  0  0  0  0  0  0  0
    3.0210    4.5130   -0.2190 F   0  0  0  0  0  0  0  0  0  0  0
    0.9570    0.5270    0.4320 C   0  0  0  0  0  0  0  0  0  0  0
   -0.1490    1.2750    0.6130 O   0  0  0  0  0  0  0  0  0  0  0
   -0.2870    1.9460   -0.5470 C   0  0  0  0  0  0  0  0  0  0  0
    0.7000    1.6100   -1.3900 N   0  0  0  0  0  0  0  0  0  0  0
    1.4560    0.7460   -0.7950 N   0  0  0  0  0  0  0  0  0  0  0
   -1.3560    2.9010   -0.8320 C   0  0  0  0  0  0  0  0  0  0  0
    3.1130   -1.7100    3.4160 C   0  0  0  0  0  0  0  0  0  0  0
    2.9970   -2.3040    1.9950 C   0  0  0  0  0  0  0  0  0  0  0
    2.2200    6.9420   -0.6530 H   0  0  0  0  0  0  0  0  0  0  0
    1.5420    3.4770    1.6360 H   0  0  0  0  0  0  0  0  0  0  0
   -1.4740    7.7370    2.3420 H   0  0  0  0  0  0  0  0  0  0  0
   -2.2350    5.9290    3.8820 H   0  0  0  0  0  0  0  0  0  0  0
   -2.6320    2.0330    5.9700 H   0  0  0  0  0  0  0  0  0  0  0
    0.6900   -0.5900    4.1340 H   0  0  0  0  0  0  0  0  0  0  0
    2.0610    1.4420    2.5200 H   0  0  0  0  0  0  0  0  0  0  0
    3.3670    0.2510    4.3330 H   0  0  0  0  0  0  0  0  0  0  0
    4.4570    1.2960    2.3810 H   0  0  0  0  0  0  0  0  0  0  0
    5.2560   -0.2490    2.7280 H   0  0  0  0  0  0  0  0  0  0  0
    3.8310    0.5870    0.3110 H   0  0  0  0  0  0  0  0  0  0  0
    4.8520   -0.8360    0.5650 H   0  0  0  0  0  0  0  0  0  0  0
    2.5810   -1.6090   -0.0160 H   0  0  0  0  0  0  0  0  0  0  0
    0.7270   -1.1060    1.6750 H   0  0  0  0  0  0  0  0  0  0  0
   -1.2340    3.3040   -1.8380 H   0  0  0  0  0  0  0  0  0  0  0
   -2.3190    2.3970   -0.7580 H   0  0  0  0  0  0  0  0  0  0  0
   -1.3170    3.7150   -0.1090 H   0  0  0  0  0  0  0  0  0  0  0
    4.0140   -2.0930    3.8980 H   0  0  0  0  0  0  0  0  0  0  0
    2.2470   -2.0060    4.0080 H   0  0  0  0  0  0  0  0  0  0  0
    2.1720   -3.0160    1.9640 H   0  0  0  0  0  0  0  0  0  0  0
    3.9210   -2.8260    1.7410 H   0  0  0  0  0  0  0  0  0  0  0
  1  2  2  0  0  0  0
  1  4  1  0  0  0  0
  1 24  1  0  0  0  0
  2  3  1  0  0  0  0
  2 33  1  0  0  0  0
  3  6  2  0  0  0  0
  4  5  2  0  0  0  0
  4 34  1  0  0  0  0
  5  6  1  0  0  0  0
  5  9  1  0  0  0  0
  6  7  1  0  0  0  0
  7  8  1  0  0  0  0
  7 35  1  0  0  0  0
  8  9  2  0  0  0  0
  8 36  1  0  0  0  0
  9 10  1  0  0  0  0
 10 11  2  0  0  0  0
 10 15  1  0  0  0  0
 11 12  1  0  0  0  0
 12 13  2  0  0  0  0
 12 17  1  0  0  0  0
 13 14  1  0  0  0  0
 13 16  1  0  0  0  0
 14 15  2  0  0  0  0
 14 37  1  0  0  0  0
 18 17  1  6  0  0  0
 17 38  1  0  0  0  0
 18 19  1  0  0  0  0
 18 23  1  0  0  0  0
 18 39  1  0  0  0  0
 19 20  1  0  0  0  0
 19 31  1  0  0  0  0
 19 40  1  0  0  0  0
 20 21  1  0  0  0  0
 20 41  1  0  0  0  0
 20 42  1  0  0  0  0
 21 22  1  0  0  0  0
 21 43  1  0  0  0  0
 21 44  1  0  0  0  0
 22 23  1  0  0  0  0
 22 32  1  0  0  0  0
 22 45  1  0  0  0  0
 23 25  1  1  0  0  0
 23 46  1  0  0  0  0
 25 26  1  0  0  0  0
 25 29  2  0  0  0  0
 26 27  1  0  0  0  0
 27 28  2  0  0  0  0
 27 30  1  0  0  0  0
 28 29  1  0  0  0  0
 30 47  1  0  0  0  0
 30 48  1  0  0  0  0
 30 49  1  0  0  0  0
 31 32  1  0  0  0  0
 31 50  1  0  0  0  0
 31 51  1  0  0  0  0
 32 52  1  0  0  0  0
 32 53  1  0  0  0  0
M  END
> <From>
www.bindingDB.org

> <BindingDB Reactant_set_id>
50304508

> <Ligand InChI>
InChI=1S/C22H21F2N7O/c1-10-30-31-22(32-10)17-11-2-4-12(5-3-11)18(17)28-21-16(24)9-27-20(29-21)15-8-26-19-14(15)6-13(23)7-25-19/h6-9,11-12,17-18H,2-5H2,1H3,(H,25,26)(H,27,28,29)/t11?,12?,17-,18-/m0/s1

> <Ligand InChI Key>
WIMOLDAKNKMBFB-DFYNNNJYSA-N

> <BindingDB MonomerID>
50067539

> <BindingDB Ligand Name>
CHEMBL3401989

> <Target Name Assigned by Curator or DataSource>
Cyclin-dependent kinase 2

> <Target Source Organism According to Curator or DataSource>
Homo sapiens

> <Ki (nM)>
>4000

> <IC50 (nM)>


> <Kd (nM)>


> <EC50 (nM)>


> <kon (M-1-s-1)>


> <koff (s-1)>


> <pH>


> <Temp C>


> <Curation/DataSource>
ChEMBL

> <Article DOI>
10.1016/j.bmcl.2015.03.013

> <PMID>
25827523

> <PubChem AID>


> <Patent Number>


> <Authors>
Boyd, MJ; Bandarage, UK; Bennett, H; Byrn, RR; Davies, I; Gu, W; Jacobs, M; Ledeboer, MW; Ledford, B; Leeman, JR; Perola, E; Wang, T; Bennani, Y; Clark, MP; Charifson, PS

> <Institution>
Vertex Pharmaceuticals Inc

> <Link to Ligand in BindingDB>
http://www.bindingdb.org/bind/chemsearch/marvin/MolStructure.jsp?monomerid=50067539

> <Link to Ligand-Target Pair in BindingDB>
http://www.bindingdb.org/jsp/dbsearch/PrimarySearch_ki.jsp?energyterm=kJ/mole&tag=pol&polymerid=796&target=Cyclin-dependent+kinase+2&column=ki&startPg=0&Increment=50&submit=Search

> <Link to Ligand-Target Pair in BindingDB>
http://www.bindingdb.org/jsp/dbsearch/PrimarySearch_ki.jsp?energyterm=kJ/mole&tag=r21&monomerid=50067539&enzyme=Cyclin-dependent+kinase+2&column=ki&startPg=0&Increment=50&submit=Search

> <Ligand HET ID in PDB>


> <PDB ID(s) for Ligand-Target Complex>


> <PubChem CID>
118728825

> <PubChem SID>
103961978

> <ChEBI ID of Ligand>


> <ChEMBL ID of Ligand>
CHEMBL3401989

> <DrugBank ID of Ligand>


> <IUPHAR_GRAC ID of Ligand>


> <KEGG ID of Ligand>


> <ZINC ID of Ligand>
ZINC27427996

> <Number of Protein Chains in Target (bigger than 1 implies a multichain complex)>
1

> <BindingDB Target Chain Sequence>
MENFQKVEKIGEGTYGVVYKARNKLTGEVVALKKIRLDTETEGVPSTAIREISLLKELNHPNIVKLLDVIHTENKLYLVFEFLHQDLKKFMDASALTGIPLPLIKSYLFQLLQGLAFCHSHRVLHRDLKPQNLLINTEGAIKLADFGLARAFGVPVRTYTHEVVTLWYRAPEILLGCKYYSTAVDIWSLGCIFAEMVTRRALFPGDSEIDQLFRIFRTLGTPDEVVWPGVTSMPDYKPSFPKWARQDFSKVVPPLDEDGRSLLSQMLHYDPNKRISAKAALAHPFFQDVTKPVPHLRL

> <PDB ID(s) of Target Chain>
1CKP,1DI8,1DM2,1E1V,1E1X,1E9H,1F5Q,1FIN,1FQ1,1FVT,1FVV,1G5S,1GIH,1GY3,1GZ8,1H00,1H01,1H07,1H08,1H0V,1H0W,1H1P,1H1Q,1H1R,1H1S,1H24,1H25,1H26,1H27,1H28,1HCK,1HCL,1JST,1JSU,1JSV,1JVP,1KE5,1KE6,1KE7,1KE8,1KE9,1OGU,1OI9,1OIQ,1OIR,1OIU,1OIY,1OKV,1OKW,1OL1,1OL2,1P2A,1P5E,1PF8,1PKD,1PW2,1PXI,1PXJ,1PXK,1PXL,1PXM,1PXN,1PXO,1PXP,1PYE,1QMZ,1R78,1URC,1URW,1V1K,1VYW,1VYZ,1W0X,1W8C,1W98,1WCC,1Y8Y,1Y91,1YKR,2A0C,2A4L,2B52,2B53,2B54,2B55,2BHE,2BHH,2BKZ,2BPM,2BTR,2BTS,2C4G,2C5N,2C5O,2C5V,2C5X,2C5Y,2C68,2C69,2C6I,2C6K,2C6L,2C6M,2C6O,2C6T,2CCH,2CCI,2CJM,2CLX,2DUV,2EXM,2FVD,2G9X,2I40,2J9M,2JGZ,2R3F,2R3G,2R3H,2R3I,2R3J,2R3K,2R3L,2R3M,2R3N,2R3O,2R3P,2R3Q,2R3R,2R64,2UUE,2UZB,2UZD,2UZE,2UZL,2UZN,2UZO,2V0D,2V22,2VTA,2VTH,2VTI,2VTJ,2VTL,2VTM,2VTN,2VTO,2VTP,2VTQ,2VTR,2VTS,2VTT,2VU3,2VV9,2W05,2W06,2W17,2W1H,2WEV,2WFY,2WHB,2WIH,2WIP,2WMA,2WMB,2WPA,2WXV,2X1N,2XMY,2XNB,3BHT,3BHU,3BHV,3DDP,3DDQ,3DOG,3EID,3EJ1,3EOC,3EZR,3EZV,3F5X,3FZ1,3IG7,3IGG,3LE6,3LFN,3LFQ,3LFS,3MY5,3NS9,3PJ8,3PXF,3PXQ,3PXR,3PXY,3PXZ,3PY0,3PY1,3QHR,3QHW,3QL8,3QQF,3QQG,3QQH,3QQJ,3QQK,3QQL,3QRT,3QRU,3QTQ,3QTR,3QTS,3QTU,3QTW,3QTX,3QTZ,3QU0,3QWJ,3QWK,3QX2,3QX4,3QXO,3QXP,3QZF,3QZG,3QZH,3QZI,3R1Q,3R1S,3R1Y,3R28,3R6X,3R71,3R73,3R7E,3R7I,3R7U,3R7V,3R7Y,3R83,3R8L,3R8M,3R8P,3R8U,3R8V,3R8Z,3R9D,3R9H,3R9N,3R9O,3RAH,3RAI,3RAK,3RAL,3RJC,3RK5,3RK7,3RK9,3RKB,3RM6,3RM7,3RMF,3RNI,3ROY,3RPO,3RPR,3RPV,3RPY,3RZB,3S00,3S0O,3S1H,3S2P,3SQQ,3SW4,3SW7,3TI1,3TIY,3TIZ,3TNW,3ULI,3UNJ,3UNK,3WBL,4ACM,4BCK,4BCM,4BCN,4BCO,4BCP,4BCQ,4BGH,4BZD,4CFM,4CFN,4CFU,4CFV,4CFW,4CFX,4D1X,4D1Z,4EK3,4EK4,4EK5,4EK6,4EK8,4EOQ,4EOR,4EOS,4ERW,4EZ3,4EZ7,4FKG,4FKI,4FKJ,4FKL,4FKO,4FKP,4FKQ,4FKR,4FKS,4FKT,4FKU,4FKV,4FKW,4FX3,4GCJ,4I3Z,4II5,4KD1,4LYN,4NJ3,4RJ3,5A14,5AND,5ANE,5ANG,5ANI,5ANJ,5ANK,5ANO,5CYI,5D1J,5FP5,5FP6,5IEV,5IEX,5IEY,5IF1,5JQ5,5JQ8,5K4J,5L2W,5LMK,5MHQ,5NEV,5OO0,5OSJ,5UQ1,5UQ2,5UQ3,6ATH,6GUB,6GUC,6GUE,6GUF,6GUH,6GUK,6GVA,6INL,6JGM,6OQI,6P3W,6Q3B,6Q3C,6Q3F,6Q48,6Q49,6Q4A,6Q4B,6Q4C,6Q4D,6Q4E,6Q4F,6Q4H,6Q4J,6Q4K,6RIJ,6SG4,7ACK,7B5L,7B5R,7B7S,7E34,7KJS,7M2F,7NVQ

> <UniProt (SwissProt) Recommended Name of Target Chain>
Cyclin-dependent kinase 2

> <UniProt (SwissProt) Entry Name of Target Chain>
CDK2_HUMAN

> <UniProt (SwissProt) Primary ID of Target Chain>
P24941

> <UniProt (SwissProt) Secondary ID(s) of Target Chain>
A8K7C6,O75100

> <UniProt (SwissProt) Alternative ID(s) of Target Chain>


> <UniProt (TrEMBL) Submitted Name of Target Chain>


> <UniProt (TrEMBL) Entry Name of Target Chain>


> <UniProt (TrEMBL) Primary ID of Target Chain>
A0A024RB77

> <UniProt (TrEMBL) Secondary ID(s) of Target Chain>


> <UniProt (TrEMBL) Alternative ID(s) of Target Chain>


$$$$
ttt_mol_1

Vconf v2.1
 53 58  0  0  0  0  0  0  0  0999 V2000
   -2.4620    0.1310    0.5940 C   0  0  0  0  0  0  0  0  0  0  0
   -3.2650   -1.0290    0.5610 C   0  0  0  0  0  0  0  0  0  0  0
   -2.6990   -2.2630    0.6620 N   0  0  0  0  0  0  0  0  0  0  0
   -1.0660   -0.0010    0.7310 C   0  0  0  0  0  0  0  0  0  0  0
   -0.5140   -1.2900    0.8270 C   0  0  0  0  0  0  0  0  0  0  0
   -1.3570   -2.3980    0.7930 C   0  0  0  0  0  0  0  0  0  0  0
   -0.6170   -3.5080    0.9040 N   0  0  0  0  0  0  0  0  0  0  0
    0.6760   -3.1540    1.0040 C   0  0  0  0  0  0  0  0  0  0  0
    0.7930   -1.7620    0.9570 C   0  0  0  0  0  0  0  0  0  0  0
    1.9960   -1.0320    1.0120 C   0  0  0  0  0  0  0  0  0  0  0
    2.0010    0.3200    0.9270 N   0  0  0  0  0  0  0  0  0  0  0
    3.1380    1.0570    0.9450 C   0  0  0  0  0  0  0  0  0  0  0
    4.3780    0.4060    1.0680 C   0  0  0  0  0  0  0  0  0  0  0
    4.3640   -0.9930    1.1660 C   0  0  0  0  0  0  0  0  0  0  0
    3.1890   -1.6660    1.1320 N   0  0  0  0  0  0  0  0  0  0  0
    5.5050    1.0640    1.0890 F   0  0  0  0  0  0  0  0  0  0  0
    3.0870    2.4030    0.8200 N   0  0  0  0  0  0  0  0  0  0  0
    1.8830    3.1530    0.6840 C   0  0  1  0  0  0  0  0  0  0  0
    1.9160    4.3610    1.6470 C   0  0  2  0  0  0  0  0  0  0  0
    0.5220    5.0170    1.6260 C   0  0  0  0  0  0  0  0  0  0  0
    0.1400    5.4000    0.1800 C   0  0  0  0  0  0  0  0  0  0  0
    1.3300    5.1490   -0.7730 C   0  0  2  0  0  0  0  0  0  0  0
    1.7200    3.6500   -0.7800 C   0  0  2  0  0  0  0  0  0  0  0
   -3.0010    1.3130    0.4950 F   0  0  0  0  0  0  0  0  0  0  0
    0.7710    2.8110   -1.5320 C   0  0  0  0  0  0  0  0  0  0  0
   -0.3650    3.2340   -2.1290 O   0  0  0  0  0  0  0  0  0  0  0
   -0.9370    2.1980   -2.6740 N   0  0  0  0  0  0  0  0  0  0  0
   -0.1650    1.1310   -2.4250 C   0  0  0  0  0  0  0  0  0  0  0
    0.9100    1.4930   -1.7160 N   0  0  0  0  0  0  0  0  0  0  0
   -0.4650   -0.2350   -2.8490 C   0  0  0  0  0  0  0  0  0  0  0
    2.9460    5.4000    1.1570 C   0  0  0  0  0  0  0  0  0  0  0
    2.5380    5.9400   -0.2310 C   0  0  0  0  0  0  0  0  0  0  0
   -4.2770   -0.9460    0.4620 H   0  0  0  0  0  0  0  0  0  0  0
   -0.4710    0.8270    0.7530 H   0  0  0  0  0  0  0  0  0  0  0
   -0.9590   -4.4150    0.9070 H   0  0  0  0  0  0  0  0  0  0  0
    1.4540   -3.8100    1.0940 H   0  0  0  0  0  0  0  0  0  0  0
    5.2400   -1.5090    1.2570 H   0  0  0  0  0  0  0  0  0  0  0
    3.9280    2.8850    0.7920 H   0  0  0  0  0  0  0  0  0  0  0
    1.0200    2.5480    0.9730 H   0  0  0  0  0  0  0  0  0  0  0
    2.1580    4.0340    2.6590 H   0  0  0  0  0  0  0  0  0  0  0
   -0.2170    4.3200    2.0260 H   0  0  0  0  0  0  0  0  0  0  0
    0.5340    5.9120    2.2510 H   0  0  0  0  0  0  0  0  0  0  0
   -0.7200    4.8090   -0.1360 H   0  0  0  0  0  0  0  0  0  0  0
   -0.1340    6.4550    0.1470 H   0  0  0  0  0  0  0  0  0  0  0
    1.0890    5.4950   -1.7800 H   0  0  0  0  0  0  0  0  0  0  0
    2.6810    3.5670   -1.2920 H   0  0  0  0  0  0  0  0  0  0  0
    0.3190   -0.9100   -2.5030 H   0  0  0  0  0  0  0  0  0  0  0
   -1.4200   -0.5440   -2.4240 H   0  0  0  0  0  0  0  0  0  0  0
   -0.5220   -0.2730   -3.9370 H   0  0  0  0  0  0  0  0  0  0  0
    2.9950    6.2260    1.8670 H   0  0  0  0  0  0  0  0  0  0  0
    3.9300    4.9340    1.0920 H   0  0  0  0  0  0  0  0  0  0  0
    2.2720    6.9950   -0.1490 H   0  0  0  0  0  0  0  0  0  0  0
    3.3780    5.8440   -0.9210 H   0  0  0  0  0  0  0  0  0  0  0
  1  2  2  0  0  0  0
  1  4  1  0  0  0  0
  1 24  1  0  0  0  0
  2  3  1  0  0  0  0
  2 33  1  0  0  0  0
  3  6  2  0  0  0  0
  4  5  2  0  0  0  0
  4 34  1  0  0  0  0
  5  6  1  0  0  0  0
  5  9  1  0  0  0  0
  6  7  1  0  0  0  0
  7  8  1  0  0  0  0
  7 35  1  0  0  0  0
  8  9  2  0  0  0  0
  8 36  1  0  0  0  0
  9 10  1  0  0  0  0
 10 11  2  0  0  0  0
 10 15  1  0  0  0  0
 11 12  1  0  0  0  0
 12 13  2  0  0  0  0
 12 17  1  0  0  0  0
 13 14  1  0  0  0  0
 13 16  1  0  0  0  0
 14 15  2  0  0  0  0
 14 37  1  0  0  0  0
 18 17  1  1  0  0  0
 17 38  1  0  0  0  0
 18 19  1  0  0  0  0
 18 23  1  0  0  0  0
 18 39  1  0  0  0  0
 19 20  1  0  0  0  0
 19 31  1  0  0  0  0
 19 40  1  0  0  0  0
 20 21  1  0  0  0  0
 20 41  1  0  0  0  0
 20 42  1  0  0  0  0
 21 22  1  0  0  0  0
 21 43  1  0  0  0  0
 21 44  1  0  0  0  0
 22 23  1  0  0  0  0
 22 32  1  0  0  0  0
 22 45  1  0  0  0  0
 23 25  1  6  0  0  0
 23 46  1  0  0  0  0
 25 26  1  0  0  0  0
 25 29  2  0  0  0  0
 26 27  1  0  0  0  0
 27 28  2  0  0  0  0
 28 29  1  0  0  0  0
 28 30  1  0  0  0  0
 30 47  1  0  0  0  0
 30 48  1  0  0  0  0
 30 49  1  0  0  0  0
 31 32  1  0  0  0  0
 31 50  1  0  0  0  0
 31 51  1  0  0  0  0
 32 52  1  0  0  0  0
 32 53  1  0  0  0  0
M  END
> <From>
www.bindingDB.org

> <BindingDB Reactant_set_id>
50304507

> <Ligand InChI>
InChI=1S/C22H21F2N7O/c1-10-28-22(32-31-10)17-11-2-4-12(5-3-11)18(17)29-21-16(24)9-27-20(30-21)15-8-26-19-14(15)6-13(23)7-25-19/h6-9,11-12,17-18H,2-5H2,1H3,(H,25,26)(H,27,29,30)/t11?,12?,17-,18-/m0/s1

> <Ligand InChI Key>
IYFIEJRWVMLGOG-DFYNNNJYSA-N

> <BindingDB MonomerID>
50067538

> <BindingDB Ligand Name>
CHEMBL3401988

> <Target Name Assigned by Curator or DataSource>
Cyclin-dependent kinase 2

> <Target Source Organism According to Curator or DataSource>
Homo sapiens

> <Ki (nM)>
>4000

> <IC50 (nM)>


> <Kd (nM)>


> <EC50 (nM)>


> <kon (M-1-s-1)>


> <koff (s-1)>


> <pH>


> <Temp C>


> <Curation/DataSource>
ChEMBL

> <Article DOI>
10.1016/j.bmcl.2015.03.013

> <PMID>
25827523

> <PubChem AID>


> <Patent Number>


> <Authors>
Boyd, MJ; Bandarage, UK; Bennett, H; Byrn, RR; Davies, I; Gu, W; Jacobs, M; Ledeboer, MW; Ledford, B; Leeman, JR; Perola, E; Wang, T; Bennani, Y; Clark, MP; Charifson, PS

> <Institution>
Vertex Pharmaceuticals Inc

> <Link to Ligand in BindingDB>
http://www.bindingdb.org/bind/chemsearch/marvin/MolStructure.jsp?monomerid=50067538

> <Link to Ligand-Target Pair in BindingDB>
http://www.bindingdb.org/jsp/dbsearch/PrimarySearch_ki.jsp?energyterm=kJ/mole&tag=pol&polymerid=796&target=Cyclin-dependent+kinase+2&column=ki&startPg=0&Increment=50&submit=Search

> <Link to Ligand-Target Pair in BindingDB>
http://www.bindingdb.org/jsp/dbsearch/PrimarySearch_ki.jsp?energyterm=kJ/mole&tag=r21&monomerid=50067538&enzyme=Cyclin-dependent+kinase+2&column=ki&startPg=0&Increment=50&submit=Search

> <Ligand HET ID in PDB>


> <PDB ID(s) for Ligand-Target Complex>


> <PubChem CID>
118728824

> <PubChem SID>
103961977

> <ChEBI ID of Ligand>


> <ChEMBL ID of Ligand>
CHEMBL3401988

> <DrugBank ID of Ligand>


> <IUPHAR_GRAC ID of Ligand>


> <KEGG ID of Ligand>


> <ZINC ID of Ligand>
ZINC27430272

> <Number of Protein Chains in Target (bigger than 1 implies a multichain complex)>
1

> <BindingDB Target Chain Sequence>
MENFQKVEKIGEGTYGVVYKARNKLTGEVVALKKIRLDTETEGVPSTAIREISLLKELNHPNIVKLLDVIHTENKLYLVFEFLHQDLKKFMDASALTGIPLPLIKSYLFQLLQGLAFCHSHRVLHRDLKPQNLLINTEGAIKLADFGLARAFGVPVRTYTHEVVTLWYRAPEILLGCKYYSTAVDIWSLGCIFAEMVTRRALFPGDSEIDQLFRIFRTLGTPDEVVWPGVTSMPDYKPSFPKWARQDFSKVVPPLDEDGRSLLSQMLHYDPNKRISAKAALAHPFFQDVTKPVPHLRL

> <PDB ID(s) of Target Chain>
1CKP,1DI8,1DM2,1E1V,1E1X,1E9H,1F5Q,1FIN,1FQ1,1FVT,1FVV,1G5S,1GIH,1GY3,1GZ8,1H00,1H01,1H07,1H08,1H0V,1H0W,1H1P,1H1Q,1H1R,1H1S,1H24,1H25,1H26,1H27,1H28,1HCK,1HCL,1JST,1JSU,1JSV,1JVP,1KE5,1KE6,1KE7,1KE8,1KE9,1OGU,1OI9,1OIQ,1OIR,1OIU,1OIY,1OKV,1OKW,1OL1,1OL2,1P2A,1P5E,1PF8,1PKD,1PW2,1PXI,1PXJ,1PXK,1PXL,1PXM,1PXN,1PXO,1PXP,1PYE,1QMZ,1R78,1URC,1URW,1V1K,1VYW,1VYZ,1W0X,1W8C,1W98,1WCC,1Y8Y,1Y91,1YKR,2A0C,2A4L,2B52,2B53,2B54,2B55,2BHE,2BHH,2BKZ,2BPM,2BTR,2BTS,2C4G,2C5N,2C5O,2C5V,2C5X,2C5Y,2C68,2C69,2C6I,2C6K,2C6L,2C6M,2C6O,2C6T,2CCH,2CCI,2CJM,2CLX,2DUV,2EXM,2FVD,2G9X,2I40,2J9M,2JGZ,2R3F,2R3G,2R3H,2R3I,2R3J,2R3K,2R3L,2R3M,2R3N,2R3O,2R3P,2R3Q,2R3R,2R64,2UUE,2UZB,2UZD,2UZE,2UZL,2UZN,2UZO,2V0D,2V22,2VTA,2VTH,2VTI,2VTJ,2VTL,2VTM,2VTN,2VTO,2VTP,2VTQ,2VTR,2VTS,2VTT,2VU3,2VV9,2W05,2W06,2W17,2W1H,2WEV,2WFY,2WHB,2WIH,2WIP,2WMA,2WMB,2WPA,2WXV,2X1N,2XMY,2XNB,3BHT,3BHU,3BHV,3DDP,3DDQ,3DOG,3EID,3EJ1,3EOC,3EZR,3EZV,3F5X,3FZ1,3IG7,3IGG,3LE6,3LFN,3LFQ,3LFS,3MY5,3NS9,3PJ8,3PXF,3PXQ,3PXR,3PXY,3PXZ,3PY0,3PY1,3QHR,3QHW,3QL8,3QQF,3QQG,3QQH,3QQJ,3QQK,3QQL,3QRT,3QRU,3QTQ,3QTR,3QTS,3QTU,3QTW,3QTX,3QTZ,3QU0,3QWJ,3QWK,3QX2,3QX4,3QXO,3QXP,3QZF,3QZG,3QZH,3QZI,3R1Q,3R1S,3R1Y,3R28,3R6X,3R71,3R73,3R7E,3R7I,3R7U,3R7V,3R7Y,3R83,3R8L,3R8M,3R8P,3R8U,3R8V,3R8Z,3R9D,3R9H,3R9N,3R9O,3RAH,3RAI,3RAK,3RAL,3RJC,3RK5,3RK7,3RK9,3RKB,3RM6,3RM7,3RMF,3RNI,3ROY,3RPO,3RPR,3RPV,3RPY,3RZB,3S00,3S0O,3S1H,3S2P,3SQQ,3SW4,3SW7,3TI1,3TIY,3TIZ,3TNW,3ULI,3UNJ,3UNK,3WBL,4ACM,4BCK,4BCM,4BCN,4BCO,4BCP,4BCQ,4BGH,4BZD,4CFM,4CFN,4CFU,4CFV,4CFW,4CFX,4D1X,4D1Z,4EK3,4EK4,4EK5,4EK6,4EK8,4EOQ,4EOR,4EOS,4ERW,4EZ3,4EZ7,4FKG,4FKI,4FKJ,4FKL,4FKO,4FKP,4FKQ,4FKR,4FKS,4FKT,4FKU,4FKV,4FKW,4FX3,4GCJ,4I3Z,4II5,4KD1,4LYN,4NJ3,4RJ3,5A14,5AND,5ANE,5ANG,5ANI,5ANJ,5ANK,5ANO,5CYI,5D1J,5FP5,5FP6,5IEV,5IEX,5IEY,5IF1,5JQ5,5JQ8,5K4J,5L2W,5LMK,5MHQ,5NEV,5OO0,5OSJ,5UQ1,5UQ2,5UQ3,6ATH,6GUB,6GUC,6GUE,6GUF,6GUH,6GUK,6GVA,6INL,6JGM,6OQI,6P3W,6Q3B,6Q3C,6Q3F,6Q48,6Q49,6Q4A,6Q4B,6Q4C,6Q4D,6Q4E,6Q4F,6Q4H,6Q4J,6Q4K,6RIJ,6SG4,7ACK,7B5L,7B5R,7B7S,7E34,7KJS,7M2F,7NVQ

> <UniProt (SwissProt) Recommended Name of Target Chain>
Cyclin-dependent kinase 2

> <UniProt (SwissProt) Entry Name of Target Chain>
CDK2_HUMAN

> <UniProt (SwissProt) Primary ID of Target Chain>
P24941

> <UniProt (SwissProt) Secondary ID(s) of Target Chain>
A8K7C6,O75100

> <UniProt (SwissProt) Alternative ID(s) of Target Chain>


> <UniProt (TrEMBL) Submitted Name of Target Chain>


> <UniProt (TrEMBL) Entry Name of Target Chain>


> <UniProt (TrEMBL) Primary ID of Target Chain>
A0A024RB77

> <UniProt (TrEMBL) Secondary ID(s) of Target Chain>


> <UniProt (TrEMBL) Alternative ID(s) of Target Chain>


$$$$
ttt_mol_1

Vconf v2.1
 53 58  0  0  0  0  0  0  0  0999 V2000
    2.1140    5.2580    0.5180 C   0  0  0  0  0  0  0  0  0  0  0
    1.7710    6.5910    0.2060 C   0  0  0  0  0  0  0  0  0  0  0
    0.7360    7.2050    0.8440 N   0  0  0  0  0  0  0  0  0  0  0
    1.3710    4.5660    1.4950 C   0  0  0  0  0  0  0  0  0  0  0
    0.3080    5.2290    2.1310 C   0  0  0  0  0  0  0  0  0  0  0
    0.0180    6.5470    1.7850 C   0  0  0  0  0  0  0  0  0  0  0
   -1.0230    6.9650    2.5140 N   0  0  0  0  0  0  0  0  0  0  0
   -1.4170    5.9620    3.3190 C   0  0  0  0  0  0  0  0  0  0  0
   -0.6070    4.8410    3.1120 C   0  0  0  0  0  0  0  0  0  0  0
   -0.7260    3.6000    3.7670 C   0  0  0  0  0  0  0  0  0  0  0
    0.1090    2.5720    3.4830 N   0  0  0  0  0  0  0  0  0  0  0
    0.0160    1.3600    4.0820 C   0  0  0  0  0  0  0  0  0  0  0
   -0.9860    1.1420    5.0430 C   0  0  0  0  0  0  0  0  0  0  0
   -1.8430    2.2120    5.3360 C   0  0  0  0  0  0  0  0  0  0  0
   -1.6930    3.3980    4.6970 N   0  0  0  0  0  0  0  0  0  0  0
   -1.1270   -0.0060    5.6470 F   0  0  0  0  0  0  0  0  0  0  0
    0.8650    0.3600    3.7500 N   0  0  0  0  0  0  0  0  0  0  0
    1.9160    0.4790    2.7950 C   0  0  1  0  0  0  0  0  0  0  0
    3.2280   -0.0730    3.3940 C   0  0  2  0  0  0  0  0  0  0  0
    4.3670    0.2570    2.4090 C   0  0  0  0  0  0  0  0  0  0  0
    4.0690   -0.3600    1.0260 C   0  0  0  0  0  0  0  0  0  0  0
    2.7620   -1.1840    1.0750 C   0  0  2  0  0  0  0  0  0  0  0
    1.5550   -0.3130    1.5070 C   0  0  2  0  0  0  0  0  0  0  0
    3.1060    4.6700   -0.0890 F   0  0  0  0  0  0  0  0  0  0  0
    1.0770    0.5760    0.4310 C   0  0  0  0  0  0  0  0  0  0  0
   -0.1740    0.5610   -0.1640 C   0  0  0  0  0  0  0  0  0  0  0
   -0.1560    1.5870   -1.0930 C   0  0  0  0  0  0  0  0  0  0  0
    1.0470    2.1800   -1.0490 N   0  0  0  0  0  0  0  0  0  0  0
    1.7590    1.5770   -0.1490 N   0  0  0  0  0  0  0  0  0  0  0
   -1.1710    1.9400   -1.9060 O   0  0  0  0  0  0  0  0  0  0  0
    3.1420   -1.6080    3.5400 C   0  0  0  0  0  0  0  0  0  0  0
    2.9490   -2.2680    2.1570 C   0  0  0  0  0  0  0  0  0  0  0
    2.3010    7.1030   -0.5000 H   0  0  0  0  0  0  0  0  0  0  0
    1.6040    3.6030    1.7300 H   0  0  0  0  0  0  0  0  0  0  0
   -1.4270    7.8450    2.4680 H   0  0  0  0  0  0  0  0  0  0  0
   -2.1950    6.0140    3.9770 H   0  0  0  0  0  0  0  0  0  0  0
   -2.5840    2.1020    6.0280 H   0  0  0  0  0  0  0  0  0  0  0
    0.7340   -0.5010    4.1750 H   0  0  0  0  0  0  0  0  0  0  0
    2.0990    1.5280    2.5530 H   0  0  0  0  0  0  0  0  0  0  0
    3.4280    0.3890    4.3610 H   0  0  0  0  0  0  0  0  0  0  0
    4.4630    1.3390    2.3120 H   0  0  0  0  0  0  0  0  0  0  0
    5.3050   -0.1450    2.7940 H   0  0  0  0  0  0  0  0  0  0  0
    3.9870    0.4290    0.2800 H   0  0  0  0  0  0  0  0  0  0  0
    4.8930   -1.0160    0.7410 H   0  0  0  0  0  0  0  0  0  0  0
    2.5750   -1.6570    0.1100 H   0  0  0  0  0  0  0  0  0  0  0
    0.7420   -1.0030    1.7440 H   0  0  0  0  0  0  0  0  0  0  0
   -0.9490   -0.0690    0.0430 H   0  0  0  0  0  0  0  0  0  0  0
    2.6680    1.8240    0.0820 H   0  0  0  0  0  0  0  0  0  0  0
   -0.9630    2.6950   -2.4940 H   0  0  0  0  0  0  0  0  0  0  0
    4.0620   -1.9800    3.9930 H   0  0  0  0  0  0  0  0  0  0  0
    2.3040   -1.8650    4.1880 H   0  0  0  0  0  0  0  0  0  0  0
    3.8240   -2.8730    1.9150 H   0  0  0  0  0  0  0  0  0  0  0
    2.0720   -2.9160    2.1820 H   0  0  0  0  0  0  0  0  0  0  0
  1  2  2  0  0  0  0
  1  4  1  0  0  0  0
  1 24  1  0  0  0  0
  2  3  1  0  0  0  0
  2 33  1  0  0  0  0
  3  6  2  0  0  0  0
  4  5  2  0  0  0  0
  4 34  1  0  0  0  0
  5  6  1  0  0  0  0
  5  9  1  0  0  0  0
  6  7  1  0  0  0  0
  7  8  1  0  0  0  0
  7 35  1  0  0  0  0
  8  9  2  0  0  0  0
  8 36  1  0  0  0  0
  9 10  1  0  0  0  0
 10 11  2  0  0  0  0
 10 15  1  0  0  0  0
 11 12  1  0  0  0  0
 12 13  2  0  0  0  0
 12 17  1  0  0  0  0
 13 14  1  0  0  0  0
 13 16  1  0  0  0  0
 14 15  2  0  0  0  0
 14 37  1  0  0  0  0
 18 17  1  6  0  0  0
 17 38  1  0  0  0  0
 18 19  1  0  0  0  0
 18 23  1  0  0  0  0
 18 39  1  0  0  0  0
 19 20  1  0  0  0  0
 19 31  1  0  0  0  0
 19 40  1  0  0  0  0
 20 21  1  0  0  0  0
 20 41  1  0  0  0  0
 20 42  1  0  0  0  0
 21 22  1  0  0  0  0
 21 43  1  0  0  0  0
 21 44  1  0  0  0  0
 22 23  1  0  0  0  0
 22 32  1  0  0  0  0
 22 45  1  0  0  0  0
 23 25  1  1  0  0  0
 23 46  1  0  0  0  0
 25 26  2  0  0  0  0
 25 29  1  0  0  0  0
 26 27  1  0  0  0  0
 26 47  1  0  0  0  0
 27 28  2  0  0  0  0
 27 30  1  0  0  0  0
 28 29  1  0  0  0  0
 29 48  1  0  0  0  0
 30 49  1  0  0  0  0
 31 32  1  0  0  0  0
 31 50  1  0  0  0  0
 31 51  1  0  0  0  0
 32 52  1  0  0  0  0
 32 53  1  0  0  0  0
M  END
> <From>
www.bindingDB.org

> <BindingDB Reactant_set_id>
50304431

> <Ligand InChI>
InChI=1S/C22H21F2N7O/c23-12-5-13-14(8-26-20(13)25-7-12)21-27-9-15(24)22(29-21)28-19-11-3-1-10(2-4-11)18(19)16-6-17(32)31-30-16/h5-11,18-19H,1-4H2,(H,25,26)(H,27,28,29)(H2,30,31,32)/t10?,11?,18-,19+/m1/s1

> <Ligand InChI Key>
NHGXNIGDTNEHGJ-DJZCKWSOSA-N

> <BindingDB MonomerID>
50067534

> <BindingDB Ligand Name>
CHEMBL3401985

> <Target Name Assigned by Curator or DataSource>
Cyclin-dependent kinase 2

> <Target Source Organism According to Curator or DataSource>
Homo sapiens

> <Ki (nM)>
>4000

> <IC50 (nM)>


> <Kd (nM)>


> <EC50 (nM)>


> <kon (M-1-s-1)>


> <koff (s-1)>


> <pH>


> <Temp C>


> <Curation/DataSource>
ChEMBL

> <Article DOI>
10.1016/j.bmcl.2015.03.013

> <PMID>
25827523

> <PubChem AID>


> <Patent Number>


> <Authors>
Boyd, MJ; Bandarage, UK; Bennett, H; Byrn, RR; Davies, I; Gu, W; Jacobs, M; Ledeboer, MW; Ledford, B; Leeman, JR; Perola, E; Wang, T; Bennani, Y; Clark, MP; Charifson, PS

> <Institution>
Vertex Pharmaceuticals Inc

> <Link to Ligand in BindingDB>
http://www.bindingdb.org/bind/chemsearch/marvin/MolStructure.jsp?monomerid=50067534

> <Link to Ligand-Target Pair in BindingDB>
http://www.bindingdb.org/jsp/dbsearch/PrimarySearch_ki.jsp?energyterm=kJ/mole&tag=pol&polymerid=796&target=Cyclin-dependent+kinase+2&column=ki&startPg=0&Increment=50&submit=Search

> <Link to Ligand-Target Pair in BindingDB>
http://www.bindingdb.org/jsp/dbsearch/PrimarySearch_ki.jsp?energyterm=kJ/mole&tag=r21&monomerid=50067534&enzyme=Cyclin-dependent+kinase+2&column=ki&startPg=0&Increment=50&submit=Search

> <Ligand HET ID in PDB>


> <PDB ID(s) for Ligand-Target Complex>


> <PubChem CID>
118728821

> <PubChem SID>
103961973

> <ChEBI ID of Ligand>


> <ChEMBL ID of Ligand>
CHEMBL3401985

> <DrugBank ID of Ligand>


> <IUPHAR_GRAC ID of Ligand>


> <KEGG ID of Ligand>


> <ZINC ID of Ligand>
ZINC13781583

> <Number of Protein Chains in Target (bigger than 1 implies a multichain complex)>
1

> <BindingDB Target Chain Sequence>
MENFQKVEKIGEGTYGVVYKARNKLTGEVVALKKIRLDTETEGVPSTAIREISLLKELNHPNIVKLLDVIHTENKLYLVFEFLHQDLKKFMDASALTGIPLPLIKSYLFQLLQGLAFCHSHRVLHRDLKPQNLLINTEGAIKLADFGLARAFGVPVRTYTHEVVTLWYRAPEILLGCKYYSTAVDIWSLGCIFAEMVTRRALFPGDSEIDQLFRIFRTLGTPDEVVWPGVTSMPDYKPSFPKWARQDFSKVVPPLDEDGRSLLSQMLHYDPNKRISAKAALAHPFFQDVTKPVPHLRL

> <PDB ID(s) of Target Chain>
1CKP,1DI8,1DM2,1E1V,1E1X,1E9H,1F5Q,1FIN,1FQ1,1FVT,1FVV,1G5S,1GIH,1GY3,1GZ8,1H00,1H01,1H07,1H08,1H0V,1H0W,1H1P,1H1Q,1H1R,1H1S,1H24,1H25,1H26,1H27,1H28,1HCK,1HCL,1JST,1JSU,1JSV,1JVP,1KE5,1KE6,1KE7,1KE8,1KE9,1OGU,1OI9,1OIQ,1OIR,1OIU,1OIY,1OKV,1OKW,1OL1,1OL2,1P2A,1P5E,1PF8,1PKD,1PW2,1PXI,1PXJ,1PXK,1PXL,1PXM,1PXN,1PXO,1PXP,1PYE,1QMZ,1R78,1URC,1URW,1V1K,1VYW,1VYZ,1W0X,1W8C,1W98,1WCC,1Y8Y,1Y91,1YKR,2A0C,2A4L,2B52,2B53,2B54,2B55,2BHE,2BHH,2BKZ,2BPM,2BTR,2BTS,2C4G,2C5N,2C5O,2C5V,2C5X,2C5Y,2C68,2C69,2C6I,2C6K,2C6L,2C6M,2C6O,2C6T,2CCH,2CCI,2CJM,2CLX,2DUV,2EXM,2FVD,2G9X,2I40,2J9M,2JGZ,2R3F,2R3G,2R3H,2R3I,2R3J,2R3K,2R3L,2R3M,2R3N,2R3O,2R3P,2R3Q,2R3R,2R64,2UUE,2UZB,2UZD,2UZE,2UZL,2UZN,2UZO,2V0D,2V22,2VTA,2VTH,2VTI,2VTJ,2VTL,2VTM,2VTN,2VTO,2VTP,2VTQ,2VTR,2VTS,2VTT,2VU3,2VV9,2W05,2W06,2W17,2W1H,2WEV,2WFY,2WHB,2WIH,2WIP,2WMA,2WMB,2WPA,2WXV,2X1N,2XMY,2XNB,3BHT,3BHU,3BHV,3DDP,3DDQ,3DOG,3EID,3EJ1,3EOC,3EZR,3EZV,3F5X,3FZ1,3IG7,3IGG,3LE6,3LFN,3LFQ,3LFS,3MY5,3NS9,3PJ8,3PXF,3PXQ,3PXR,3PXY,3PXZ,3PY0,3PY1,3QHR,3QHW,3QL8,3QQF,3QQG,3QQH,3QQJ,3QQK,3QQL,3QRT,3QRU,3QTQ,3QTR,3QTS,3QTU,3QTW,3QTX,3QTZ,3QU0,3QWJ,3QWK,3QX2,3QX4,3QXO,3QXP,3QZF,3QZG,3QZH,3QZI,3R1Q,3R1S,3R1Y,3R28,3R6X,3R71,3R73,3R7E,3R7I,3R7U,3R7V,3R7Y,3R83,3R8L,3R8M,3R8P,3R8U,3R8V,3R8Z,3R9D,3R9H,3R9N,3R9O,3RAH,3RAI,3RAK,3RAL,3RJC,3RK5,3RK7,3RK9,3RKB,3RM6,3RM7,3RMF,3RNI,3ROY,3RPO,3RPR,3RPV,3RPY,3RZB,3S00,3S0O,3S1H,3S2P,3SQQ,3SW4,3SW7,3TI1,3TIY,3TIZ,3TNW,3ULI,3UNJ,3UNK,3WBL,4ACM,4BCK,4BCM,4BCN,4BCO,4BCP,4BCQ,4BGH,4BZD,4CFM,4CFN,4CFU,4CFV,4CFW,4CFX,4D1X,4D1Z,4EK3,4EK4,4EK5,4EK6,4EK8,4EOQ,4EOR,4EOS,4ERW,4EZ3,4EZ7,4FKG,4FKI,4FKJ,4FKL,4FKO,4FKP,4FKQ,4FKR,4FKS,4FKT,4FKU,4FKV,4FKW,4FX3,4GCJ,4I3Z,4II5,4KD1,4LYN,4NJ3,4RJ3,5A14,5AND,5ANE,5ANG,5ANI,5ANJ,5ANK,5ANO,5CYI,5D1J,5FP5,5FP6,5IEV,5IEX,5IEY,5IF1,5JQ5,5JQ8,5K4J,5L2W,5LMK,5MHQ,5NEV,5OO0,5OSJ,5UQ1,5UQ2,5UQ3,6ATH,6GUB,6GUC,6GUE,6GUF,6GUH,6GUK,6GVA,6INL,6JGM,6OQI,6P3W,6Q3B,6Q3C,6Q3F,6Q48,6Q49,6Q4A,6Q4B,6Q4C,6Q4D,6Q4E,6Q4F,6Q4H,6Q4J,6Q4K,6RIJ,6SG4,7ACK,7B5L,7B5R,7B7S,7E34,7KJS,7M2F,7NVQ

> <UniProt (SwissProt) Recommended Name of Target Chain>
Cyclin-dependent kinase 2

> <UniProt (SwissProt) Entry Name of Target Chain>
CDK2_HUMAN

> <UniProt (SwissProt) Primary ID of Target Chain>
P24941

> <UniProt (SwissProt) Secondary ID(s) of Target Chain>
A8K7C6,O75100

> <UniProt (SwissProt) Alternative ID(s) of Target Chain>


> <UniProt (TrEMBL) Submitted Name of Target Chain>


> <UniProt (TrEMBL) Entry Name of Target Chain>


> <UniProt (TrEMBL) Primary ID of Target Chain>
A0A024RB77

> <UniProt (TrEMBL) Secondary ID(s) of Target Chain>


> <UniProt (TrEMBL) Alternative ID(s) of Target Chain>


$$$$
ttt_mol_1

Vconf v2.1
 53 57  0  0  0  0  0  0  0  0999 V2000
    1.9480   -2.1090    0.1510 C   0  0  0  0  0  0  0  0  0  0  0
    1.8900   -3.5180    0.2200 C   0  0  0  0  0  0  0  0  0  0  0
    0.6990   -4.1520    0.4010 N   0  0  0  0  0  0  0  0  0  0  0
    0.7600   -1.3630    0.2720 C   0  0  0  0  0  0  0  0  0  0  0
   -0.4540   -2.0500    0.4550 C   0  0  0  0  0  0  0  0  0  0  0
   -0.4490   -3.4420    0.5170 C   0  0  0  0  0  0  0  0  0  0  0
   -1.7050   -3.8700    0.6970 N   0  0  0  0  0  0  0  0  0  0  0
   -2.5210   -2.8030    0.7510 C   0  0  0  0  0  0  0  0  0  0  0
   -1.7770   -1.6290    0.6020 C   0  0  0  0  0  0  0  0  0  0  0
   -2.2900   -0.3180    0.6000 C   0  0  0  0  0  0  0  0  0  0  0
   -1.4720    0.7490    0.4390 N   0  0  0  0  0  0  0  0  0  0  0
   -1.9220    2.0270    0.4250 C   0  0  0  0  0  0  0  0  0  0  0
   -3.2950    2.2770    0.5900 C   0  0  0  0  0  0  0  0  0  0  0
   -4.1350    1.1670    0.7550 C   0  0  0  0  0  0  0  0  0  0  0
   -3.6170   -0.0860    0.7550 N   0  0  0  0  0  0  0  0  0  0  0
   -3.7820    3.4880    0.5900 F   0  0  0  0  0  0  0  0  0  0  0
   -1.0530    3.0490    0.2600 N   0  0  0  0  0  0  0  0  0  0  0
    0.3490    2.8730    0.0770 C   0  0  1  0  0  0  0  0  0  0  0
    0.6750    2.2690   -1.3110 C   0  0  2  0  0  0  0  0  0  0  0
    2.1890    1.9830   -1.3610 C   0  0  0  0  0  0  0  0  0  0  0
    2.9850    3.2900   -1.1720 C   0  0  0  0  0  0  0  0  0  0  0
    2.0210    4.4780   -0.9700 C   0  0  2  0  0  0  0  0  0  0  0
    1.0700    4.2410    0.2290 C   0  0  2  0  0  0  0  0  0  0  0
    3.0890   -1.5030   -0.0230 F   0  0  0  0  0  0  0  0  0  0  0
    1.7900    4.3760    1.5890 C   0  0  1  0  0  0  0  0  0  0  0
    0.7750    4.4520    2.7400 C   0  0  0  0  0  0  0  0  0  0  0
    2.6620    3.2810    1.8360 O   0  0  0  0  0  0  0  0  0  0  0
    1.4620    4.6240    3.9720 O   0  0  0  0  0  0  0  0  0  0  0
    0.3260    5.0390    0.1900 H   0  0  0  0  0  0  0  0  0  0  0
    0.3270    3.2840   -2.4190 C   0  0  0  0  0  0  0  0  0  0  0
    1.1490    4.5790   -2.2370 C   0  0  0  0  0  0  0  0  0  0  0
    2.7440   -4.0690    0.1340 H   0  0  0  0  0  0  0  0  0  0  0
    0.7850   -0.3450    0.2270 H   0  0  0  0  0  0  0  0  0  0  0
   -1.9780   -4.7970    0.7740 H   0  0  0  0  0  0  0  0  0  0  0
   -3.5330   -2.8480    0.8810 H   0  0  0  0  0  0  0  0  0  0  0
   -5.1400    1.2970    0.8750 H   0  0  0  0  0  0  0  0  0  0  0
   -1.4040    3.9530    0.2840 H   0  0  0  0  0  0  0  0  0  0  0
    0.7180    2.1870    0.8420 H   0  0  0  0  0  0  0  0  0  0  0
    0.1250    1.3410   -1.4700 H   0  0  0  0  0  0  0  0  0  0  0
    2.4520    1.2800   -0.5690 H   0  0  0  0  0  0  0  0  0  0  0
    2.4410    1.5360   -2.3240 H   0  0  0  0  0  0  0  0  0  0  0
    3.5930    3.4710   -2.0600 H   0  0  0  0  0  0  0  0  0  0  0
    3.6520    3.1980   -0.3160 H   0  0  0  0  0  0  0  0  0  0  0
    2.5850    5.4020   -0.8340 H   0  0  0  0  0  0  0  0  0  0  0
    2.3760    5.2960    1.5890 H   0  0  0  0  0  0  0  0  0  0  0
    0.1040    5.2970    2.5830 H   0  0  0  0  0  0  0  0  0  0  0
    0.1910    3.5320    2.7820 H   0  0  0  0  0  0  0  0  0  0  0
    3.0990    3.3180    2.7130 H   0  0  0  0  0  0  0  0  0  0  0
    0.8780    4.6790    4.7570 H   0  0  0  0  0  0  0  0  0  0  0
    0.5510    2.8460   -3.3920 H   0  0  0  0  0  0  0  0  0  0  0
   -0.7370    3.5170   -2.3750 H   0  0  0  0  0  0  0  0  0  0  0
    1.7880    4.7300   -3.1080 H   0  0  0  0  0  0  0  0  0  0  0
    0.4720    5.4300   -2.1490 H   0  0  0  0  0  0  0  0  0  0  0
  1  2  2  0  0  0  0
  1  4  1  0  0  0  0
  1 24  1  0  0  0  0
  2  3  1  0  0  0  0
  2 32  1  0  0  0  0
  3  6  2  0  0  0  0
  4  5  2  0  0  0  0
  4 33  1  0  0  0  0
  5  6  1  0  0  0  0
  5  9  1  0  0  0  0
  6  7  1  0  0  0  0
  7  8  1  0  0  0  0
  7 34  1  0  0  0  0
  8  9  2  0  0  0  0
  8 35  1  0  0  0  0
  9 10  1  0  0  0  0
 10 11  2  0  0  0  0
 10 15  1  0  0  0  0
 11 12  1  0  0  0  0
 12 13  2  0  0  0  0
 12 17  1  0  0  0  0
 13 14  1  0  0  0  0
 13 16  1  0  0  0  0
 14 15  2  0  0  0  0
 14 36  1  0  0  0  0
 18 17  1  6  0  0  0
 17 37  1  0  0  0  0
 18 19  1  0  0  0  0
 18 23  1  0  0  0  0
 18 38  1  0  0  0  0
 19 20  1  0  0  0  0
 19 30  1  0  0  0  0
 19 39  1  0  0  0  0
 20 21  1  0  0  0  0
 20 40  1  0  0  0  0
 20 41  1  0  0  0  0
 21 22  1  0  0  0  0
 21 42  1  0  0  0  0
 21 43  1  0  0  0  0
 22 23  1  0  0  0  0
 22 31  1  0  0  0  0
 22 44  1  0  0  0  0
 23 25  1  0  0  0  0
 23 29  1  6  0  0  0
 25 26  1  0  0  0  0
 25 27  1  0  0  0  0
 25 45  1  0  0  0  0
 26 28  1  0  0  0  0
 26 46  1  0  0  0  0
 26 47  1  0  0  0  0
 27 48  1  0  0  0  0
 28 49  1  0  0  0  0
 30 31  1  0  0  0  0
 30 50  1  0  0  0  0
 30 51  1  0  0  0  0
 31 52  1  0  0  0  0
 31 53  1  0  0  0  0
M  END
> <From>
www.bindingDB.org

> <BindingDB Reactant_set_id>
50304430

> <Ligand InChI>
InChI=1S/C21H23F2N5O2/c22-12-5-13-14(7-25-19(13)24-6-12)20-26-8-15(23)21(28-20)27-18-11-3-1-10(2-4-11)17(18)16(30)9-29/h5-8,10-11,16-18,29-30H,1-4,9H2,(H,24,25)(H,26,27,28)/t10?,11?,16?,17-,18+/m1/s1

> <Ligand InChI Key>
VAPOMSIOLKMAIW-DBPFDUESSA-N

> <BindingDB MonomerID>
50067533

> <BindingDB Ligand Name>
CHEMBL3401984

> <Target Name Assigned by Curator or DataSource>
Cyclin-dependent kinase 2

> <Target Source Organism According to Curator or DataSource>
Homo sapiens

> <Ki (nM)>
>4000

> <IC50 (nM)>


> <Kd (nM)>


> <EC50 (nM)>


> <kon (M-1-s-1)>


> <koff (s-1)>


> <pH>


> <Temp C>


> <Curation/DataSource>
ChEMBL

> <Article DOI>
10.1016/j.bmcl.2015.03.013

> <PMID>
25827523

> <PubChem AID>


> <Patent Number>


> <Authors>
Boyd, MJ; Bandarage, UK; Bennett, H; Byrn, RR; Davies, I; Gu, W; Jacobs, M; Ledeboer, MW; Ledford, B; Leeman, JR; Perola, E; Wang, T; Bennani, Y; Clark, MP; Charifson, PS

> <Institution>
Vertex Pharmaceuticals Inc

> <Link to Ligand in BindingDB>
http://www.bindingdb.org/bind/chemsearch/marvin/MolStructure.jsp?monomerid=50067533

> <Link to Ligand-Target Pair in BindingDB>
http://www.bindingdb.org/jsp/dbsearch/PrimarySearch_ki.jsp?energyterm=kJ/mole&tag=pol&polymerid=796&target=Cyclin-dependent+kinase+2&column=ki&startPg=0&Increment=50&submit=Search

> <Link to Ligand-Target Pair in BindingDB>
http://www.bindingdb.org/jsp/dbsearch/PrimarySearch_ki.jsp?energyterm=kJ/mole&tag=r21&monomerid=50067533&enzyme=Cyclin-dependent+kinase+2&column=ki&startPg=0&Increment=50&submit=Search

> <Ligand HET ID in PDB>


> <PDB ID(s) for Ligand-Target Complex>


> <PubChem CID>
118728820

> <PubChem SID>
103961972

> <ChEBI ID of Ligand>


> <ChEMBL ID of Ligand>
CHEMBL3401984

> <DrugBank ID of Ligand>


> <IUPHAR_GRAC ID of Ligand>


> <KEGG ID of Ligand>


> <ZINC ID of Ligand>
ZINC13781582

> <Number of Protein Chains in Target (bigger than 1 implies a multichain complex)>
1

> <BindingDB Target Chain Sequence>
MENFQKVEKIGEGTYGVVYKARNKLTGEVVALKKIRLDTETEGVPSTAIREISLLKELNHPNIVKLLDVIHTENKLYLVFEFLHQDLKKFMDASALTGIPLPLIKSYLFQLLQGLAFCHSHRVLHRDLKPQNLLINTEGAIKLADFGLARAFGVPVRTYTHEVVTLWYRAPEILLGCKYYSTAVDIWSLGCIFAEMVTRRALFPGDSEIDQLFRIFRTLGTPDEVVWPGVTSMPDYKPSFPKWARQDFSKVVPPLDEDGRSLLSQMLHYDPNKRISAKAALAHPFFQDVTKPVPHLRL

> <PDB ID(s) of Target Chain>
1CKP,1DI8,1DM2,1E1V,1E1X,1E9H,1F5Q,1FIN,1FQ1,1FVT,1FVV,1G5S,1GIH,1GY3,1GZ8,1H00,1H01,1H07,1H08,1H0V,1H0W,1H1P,1H1Q,1H1R,1H1S,1H24,1H25,1H26,1H27,1H28,1HCK,1HCL,1JST,1JSU,1JSV,1JVP,1KE5,1KE6,1KE7,1KE8,1KE9,1OGU,1OI9,1OIQ,1OIR,1OIU,1OIY,1OKV,1OKW,1OL1,1OL2,1P2A,1P5E,1PF8,1PKD,1PW2,1PXI,1PXJ,1PXK,1PXL,1PXM,1PXN,1PXO,1PXP,1PYE,1QMZ,1R78,1URC,1URW,1V1K,1VYW,1VYZ,1W0X,1W8C,1W98,1WCC,1Y8Y,1Y91,1YKR,2A0C,2A4L,2B52,2B53,2B54,2B55,2BHE,2BHH,2BKZ,2BPM,2BTR,2BTS,2C4G,2C5N,2C5O,2C5V,2C5X,2C5Y,2C68,2C69,2C6I,2C6K,2C6L,2C6M,2C6O,2C6T,2CCH,2CCI,2CJM,2CLX,2DUV,2EXM,2FVD,2G9X,2I40,2J9M,2JGZ,2R3F,2R3G,2R3H,2R3I,2R3J,2R3K,2R3L,2R3M,2R3N,2R3O,2R3P,2R3Q,2R3R,2R64,2UUE,2UZB,2UZD,2UZE,2UZL,2UZN,2UZO,2V0D,2V22,2VTA,2VTH,2VTI,2VTJ,2VTL,2VTM,2VTN,2VTO,2VTP,2VTQ,2VTR,2VTS,2VTT,2VU3,2VV9,2W05,2W06,2W17,2W1H,2WEV,2WFY,2WHB,2WIH,2WIP,2WMA,2WMB,2WPA,2WXV,2X1N,2XMY,2XNB,3BHT,3BHU,3BHV,3DDP,3DDQ,3DOG,3EID,3EJ1,3EOC,3EZR,3EZV,3F5X,3FZ1,3IG7,3IGG,3LE6,3LFN,3LFQ,3LFS,3MY5,3NS9,3PJ8,3PXF,3PXQ,3PXR,3PXY,3PXZ,3PY0,3PY1,3QHR,3QHW,3QL8,3QQF,3QQG,3QQH,3QQJ,3QQK,3QQL,3QRT,3QRU,3QTQ,3QTR,3QTS,3QTU,3QTW,3QTX,3QTZ,3QU0,3QWJ,3QWK,3QX2,3QX4,3QXO,3QXP,3QZF,3QZG,3QZH,3QZI,3R1Q,3R1S,3R1Y,3R28,3R6X,3R71,3R73,3R7E,3R7I,3R7U,3R7V,3R7Y,3R83,3R8L,3R8M,3R8P,3R8U,3R8V,3R8Z,3R9D,3R9H,3R9N,3R9O,3RAH,3RAI,3RAK,3RAL,3RJC,3RK5,3RK7,3RK9,3RKB,3RM6,3RM7,3RMF,3RNI,3ROY,3RPO,3RPR,3RPV,3RPY,3RZB,3S00,3S0O,3S1H,3S2P,3SQQ,3SW4,3SW7,3TI1,3TIY,3TIZ,3TNW,3ULI,3UNJ,3UNK,3WBL,4ACM,4BCK,4BCM,4BCN,4BCO,4BCP,4BCQ,4BGH,4BZD,4CFM,4CFN,4CFU,4CFV,4CFW,4CFX,4D1X,4D1Z,4EK3,4EK4,4EK5,4EK6,4EK8,4EOQ,4EOR,4EOS,4ERW,4EZ3,4EZ7,4FKG,4FKI,4FKJ,4FKL,4FKO,4FKP,4FKQ,4FKR,4FKS,4FKT,4FKU,4FKV,4FKW,4FX3,4GCJ,4I3Z,4II5,4KD1,4LYN,4NJ3,4RJ3,5A14,5AND,5ANE,5ANG,5ANI,5ANJ,5ANK,5ANO,5CYI,5D1J,5FP5,5FP6,5IEV,5IEX,5IEY,5IF1,5JQ5,5JQ8,5K4J,5L2W,5LMK,5MHQ,5NEV,5OO0,5OSJ,5UQ1,5UQ2,5UQ3,6ATH,6GUB,6GUC,6GUE,6GUF,6GUH,6GUK,6GVA,6INL,6JGM,6OQI,6P3W,6Q3B,6Q3C,6Q3F,6Q48,6Q49,6Q4A,6Q4B,6Q4C,6Q4D,6Q4E,6Q4F,6Q4H,6Q4J,6Q4K,6RIJ,6SG4,7ACK,7B5L,7B5R,7B7S,7E34,7KJS,7M2F,7NVQ

> <UniProt (SwissProt) Recommended Name of Target Chain>
Cyclin-dependent kinase 2

> <UniProt (SwissProt) Entry Name of Target Chain>
CDK2_HUMAN

> <UniProt (SwissProt) Primary ID of Target Chain>
P24941

> <UniProt (SwissProt) Secondary ID(s) of Target Chain>
A8K7C6,O75100

> <UniProt (SwissProt) Alternative ID(s) of Target Chain>


> <UniProt (TrEMBL) Submitted Name of Target Chain>


> <UniProt (TrEMBL) Entry Name of Target Chain>


> <UniProt (TrEMBL) Primary ID of Target Chain>
A0A024RB77

> <UniProt (TrEMBL) Secondary ID(s) of Target Chain>


> <UniProt (TrEMBL) Alternative ID(s) of Target Chain>


$$$$
ttt_mol_1

Vconf v2.1
 55 59  0  0  0  0  0  0  0  0999 V2000
   -2.9040   -0.2970    1.2650 C   0  0  0  0  0  0  0  0  0  0  0
   -3.6220   -1.3350    0.6330 C   0  0  0  0  0  0  0  0  0  0  0
   -3.1600   -2.6150    0.6700 N   0  0  0  0  0  0  0  0  0  0  0
   -1.7020   -0.5980    1.9350 C   0  0  0  0  0  0  0  0  0  0  0
   -1.2570   -1.9320    1.9570 C   0  0  0  0  0  0  0  0  0  0  0
   -2.0060   -2.9140    1.3140 C   0  0  0  0  0  0  0  0  0  0  0
   -1.3900   -4.0930    1.4630 N   0  0  0  0  0  0  0  0  0  0  0
   -0.2690   -3.9060    2.1820 C   0  0  0  0  0  0  0  0  0  0  0
   -0.1420   -2.5560    2.5200 C   0  0  0  0  0  0  0  0  0  0  0
    0.9000   -1.9840    3.2740 C   0  0  0  0  0  0  0  0  0  0  0
    0.9120   -0.6590    3.5550 N   0  0  0  0  0  0  0  0  0  0  0
    1.8930   -0.0710    4.2830 C   0  0  0  0  0  0  0  0  0  0  0
    2.9560   -0.8510    4.7680 C   0  0  0  0  0  0  0  0  0  0  0
    2.9350   -2.2210    4.4740 C   0  0  0  0  0  0  0  0  0  0  0
    1.9200   -2.7450    3.7440 N   0  0  0  0  0  0  0  0  0  0  0
    3.9310   -0.3330    5.4640 F   0  0  0  0  0  0  0  0  0  0  0
    1.8550    1.2570    4.5280 N   0  0  0  0  0  0  0  0  0  0  0
    0.8310    2.1250    4.0530 C   0  0  1  0  0  0  0  0  0  0  0
   -0.5240    1.9010    4.7670 C   0  0  2  0  0  0  0  0  0  0  0
   -1.5860    2.7440    4.0330 C   0  0  0  0  0  0  0  0  0  0  0
   -1.1770    4.2320    4.0280 C   0  0  0  0  0  0  0  0  0  0  0
    0.1200    4.4320    4.8390 C   0  0  2  0  0  0  0  0  0  0  0
    1.2780    3.5910    4.2590 C   0  0  2  0  0  0  0  0  0  0  0
   -3.3470    0.9280    1.2290 F   0  0  0  0  0  0  0  0  0  0  0
    1.9230    4.2640    2.7130 S   0  0  0  0  0  0  0  0  0  0  0
    3.0940    3.2130    2.1240 N   0  0  0  0  0  0  0  0  0  0  0
    0.8170    4.1470    1.5780 O   0  0  0  0  0  0  0  0  0  0  0
    2.6610    5.6190    3.0960 O   0  0  0  0  0  0  0  0  0  0  0
    4.1390    2.8210    2.8660 C   0  0  0  0  0  0  0  0  0  0  0
    4.2750    3.2350    4.0370 O   0  0  0  0  0  0  0  0  0  0  0
    5.1010    1.8700    2.3130 C   0  0  0  0  0  0  0  0  0  0  0
   -0.4320    2.3930    6.2270 C   0  0  0  0  0  0  0  0  0  0  0
   -0.1460    3.9110    6.2670 C   0  0  0  0  0  0  0  0  0  0  0
   -4.4940   -1.1300    0.1440 H   0  0  0  0  0  0  0  0  0  0  0
   -1.1680    0.1410    2.3920 H   0  0  0  0  0  0  0  0  0  0  0
   -1.7030   -4.9410    1.1110 H   0  0  0  0  0  0  0  0  0  0  0
    0.3860   -4.6440    2.4430 H   0  0  0  0  0  0  0  0  0  0  0
    3.6840   -2.8290    4.8060 H   0  0  0  0  0  0  0  0  0  0  0
    2.5940    1.6470    5.0230 H   0  0  0  0  0  0  0  0  0  0  0
    0.6920    1.9530    2.9830 H   0  0  0  0  0  0  0  0  0  0  0
   -0.8090    0.8490    4.7440 H   0  0  0  0  0  0  0  0  0  0  0
   -1.6840    2.3930    3.0050 H   0  0  0  0  0  0  0  0  0  0  0
   -2.5470    2.6300    4.5350 H   0  0  0  0  0  0  0  0  0  0  0
   -1.0330    4.5720    3.0040 H   0  0  0  0  0  0  0  0  0  0  0
   -1.9750    4.8250    4.4760 H   0  0  0  0  0  0  0  0  0  0  0
    0.3940    5.4870    4.8670 H   0  0  0  0  0  0  0  0  0  0  0
    2.0870    3.6260    4.9880 H   0  0  0  0  0  0  0  0  0  0  0
    2.9980    2.8710    1.2230 H   0  0  0  0  0  0  0  0  0  0  0
    5.8730    1.6510    3.0510 H   0  0  0  0  0  0  0  0  0  0  0
    4.5870    0.9460    2.0480 H   0  0  0  0  0  0  0  0  0  0  0
    5.5650    2.2960    1.4240 H   0  0  0  0  0  0  0  0  0  0  0
   -1.3730    2.1870    6.7390 H   0  0  0  0  0  0  0  0  0  0  0
    0.3690    1.8570    6.7380 H   0  0  0  0  0  0  0  0  0  0  0
   -1.0050    4.4340    6.6890 H   0  0  0  0  0  0  0  0  0  0  0
    0.7240    4.1020    6.8950 H   0  0  0  0  0  0  0  0  0  0  0
  1  2  2  0  0  0  0
  1  4  1  0  0  0  0
  1 24  1  0  0  0  0
  2  3  1  0  0  0  0
  2 34  1  0  0  0  0
  3  6  2  0  0  0  0
  4  5  2  0  0  0  0
  4 35  1  0  0  0  0
  5  6  1  0  0  0  0
  5  9  1  0  0  0  0
  6  7  1  0  0  0  0
  7  8  1  0  0  0  0
  7 36  1  0  0  0  0
  8  9  2  0  0  0  0
  8 37  1  0  0  0  0
  9 10  1  0  0  0  0
 10 11  2  0  0  0  0
 10 15  1  0  0  0  0
 11 12  1  0  0  0  0
 12 13  2  0  0  0  0
 12 17  1  0  0  0  0
 13 14  1  0  0  0  0
 13 16  1  0  0  0  0
 14 15  2  0  0  0  0
 14 38  1  0  0  0  0
 18 17  1  1  0  0  0
 17 39  1  0  0  0  0
 18 19  1  0  0  0  0
 18 23  1  0  0  0  0
 18 40  1  0  0  0  0
 19 20  1  0  0  0  0
 19 32  1  0  0  0  0
 19 41  1  0  0  0  0
 20 21  1  0  0  0  0
 20 42  1  0  0  0  0
 20 43  1  0  0  0  0
 21 22  1  0  0  0  0
 21 44  1  0  0  0  0
 21 45  1  0  0  0  0
 22 23  1  0  0  0  0
 22 33  1  0  0  0  0
 22 46  1  0  0  0  0
 23 25  1  6  0  0  0
 23 47  1  0  0  0  0
 25 26  1  0  0  0  0
 25 27  2  0  0  0  0
 25 28  2  0  0  0  0
 26 29  1  0  0  0  0
 26 48  1  0  0  0  0
 29 30  2  0  0  0  0
 29 31  1  0  0  0  0
 31 49  1  0  0  0  0
 31 50  1  0  0  0  0
 31 51  1  0  0  0  0
 32 33  1  0  0  0  0
 32 52  1  0  0  0  0
 32 53  1  0  0  0  0
 33 54  1  0  0  0  0
 33 55  1  0  0  0  0
M  END
> <From>
www.bindingDB.org

> <BindingDB Reactant_set_id>
50304423

> <Ligand InChI>
InChI=1S/C21H22F2N6O3S/c1-10(30)29-33(31,32)18-12-4-2-11(3-5-12)17(18)27-21-16(23)9-26-20(28-21)15-8-25-19-14(15)6-13(22)7-24-19/h6-9,11-12,17-18H,2-5H2,1H3,(H,24,25)(H,29,30)(H,26,27,28)/t11?,12?,17-,18-/m0/s1

> <Ligand InChI Key>
ACXVCLUGFVYVMQ-DFYNNNJYSA-N

> <BindingDB MonomerID>
50067517

> <BindingDB Ligand Name>
CHEMBL3401980

> <Target Name Assigned by Curator or DataSource>
Cyclin-dependent kinase 2

> <Target Source Organism According to Curator or DataSource>
Homo sapiens

> <Ki (nM)>
>4000

> <IC50 (nM)>


> <Kd (nM)>


> <EC50 (nM)>


> <kon (M-1-s-1)>


> <koff (s-1)>


> <pH>


> <Temp C>


> <Curation/DataSource>
ChEMBL

> <Article DOI>
10.1016/j.bmcl.2015.03.013

> <PMID>
25827523

> <PubChem AID>


> <Patent Number>


> <Authors>
Boyd, MJ; Bandarage, UK; Bennett, H; Byrn, RR; Davies, I; Gu, W; Jacobs, M; Ledeboer, MW; Ledford, B; Leeman, JR; Perola, E; Wang, T; Bennani, Y; Clark, MP; Charifson, PS

> <Institution>
Vertex Pharmaceuticals Inc

> <Link to Ligand in BindingDB>
http://www.bindingdb.org/bind/chemsearch/marvin/MolStructure.jsp?monomerid=50067517

> <Link to Ligand-Target Pair in BindingDB>
http://www.bindingdb.org/jsp/dbsearch/PrimarySearch_ki.jsp?energyterm=kJ/mole&tag=pol&polymerid=796&target=Cyclin-dependent+kinase+2&column=ki&startPg=0&Increment=50&submit=Search

> <Link to Ligand-Target Pair in BindingDB>
http://www.bindingdb.org/jsp/dbsearch/PrimarySearch_ki.jsp?energyterm=kJ/mole&tag=r21&monomerid=50067517&enzyme=Cyclin-dependent+kinase+2&column=ki&startPg=0&Increment=50&submit=Search

> <Ligand HET ID in PDB>


> <PDB ID(s) for Ligand-Target Complex>


> <PubChem CID>
118728816

> <PubChem SID>
103961956

> <ChEBI ID of Ligand>


> <ChEMBL ID of Ligand>
CHEMBL3401980

> <DrugBank ID of Ligand>


> <IUPHAR_GRAC ID of Ligand>


> <KEGG ID of Ligand>


> <ZINC ID of Ligand>
ZINC27417770

> <Number of Protein Chains in Target (bigger than 1 implies a multichain complex)>
1

> <BindingDB Target Chain Sequence>
MENFQKVEKIGEGTYGVVYKARNKLTGEVVALKKIRLDTETEGVPSTAIREISLLKELNHPNIVKLLDVIHTENKLYLVFEFLHQDLKKFMDASALTGIPLPLIKSYLFQLLQGLAFCHSHRVLHRDLKPQNLLINTEGAIKLADFGLARAFGVPVRTYTHEVVTLWYRAPEILLGCKYYSTAVDIWSLGCIFAEMVTRRALFPGDSEIDQLFRIFRTLGTPDEVVWPGVTSMPDYKPSFPKWARQDFSKVVPPLDEDGRSLLSQMLHYDPNKRISAKAALAHPFFQDVTKPVPHLRL

> <PDB ID(s) of Target Chain>
1CKP,1DI8,1DM2,1E1V,1E1X,1E9H,1F5Q,1FIN,1FQ1,1FVT,1FVV,1G5S,1GIH,1GY3,1GZ8,1H00,1H01,1H07,1H08,1H0V,1H0W,1H1P,1H1Q,1H1R,1H1S,1H24,1H25,1H26,1H27,1H28,1HCK,1HCL,1JST,1JSU,1JSV,1JVP,1KE5,1KE6,1KE7,1KE8,1KE9,1OGU,1OI9,1OIQ,1OIR,1OIU,1OIY,1OKV,1OKW,1OL1,1OL2,1P2A,1P5E,1PF8,1PKD,1PW2,1PXI,1PXJ,1PXK,1PXL,1PXM,1PXN,1PXO,1PXP,1PYE,1QMZ,1R78,1URC,1URW,1V1K,1VYW,1VYZ,1W0X,1W8C,1W98,1WCC,1Y8Y,1Y91,1YKR,2A0C,2A4L,2B52,2B53,2B54,2B55,2BHE,2BHH,2BKZ,2BPM,2BTR,2BTS,2C4G,2C5N,2C5O,2C5V,2C5X,2C5Y,2C68,2C69,2C6I,2C6K,2C6L,2C6M,2C6O,2C6T,2CCH,2CCI,2CJM,2CLX,2DUV,2EXM,2FVD,2G9X,2I40,2J9M,2JGZ,2R3F,2R3G,2R3H,2R3I,2R3J,2R3K,2R3L,2R3M,2R3N,2R3O,2R3P,2R3Q,2R3R,2R64,2UUE,2UZB,2UZD,2UZE,2UZL,2UZN,2UZO,2V0D,2V22,2VTA,2VTH,2VTI,2VTJ,2VTL,2VTM,2VTN,2VTO,2VTP,2VTQ,2VTR,2VTS,2VTT,2VU3,2VV9,2W05,2W06,2W17,2W1H,2WEV,2WFY,2WHB,2WIH,2WIP,2WMA,2WMB,2WPA,2WXV,2X1N,2XMY,2XNB,3BHT,3BHU,3BHV,3DDP,3DDQ,3DOG,3EID,3EJ1,3EOC,3EZR,3EZV,3F5X,3FZ1,3IG7,3IGG,3LE6,3LFN,3LFQ,3LFS,3MY5,3NS9,3PJ8,3PXF,3PXQ,3PXR,3PXY,3PXZ,3PY0,3PY1,3QHR,3QHW,3QL8,3QQF,3QQG,3QQH,3QQJ,3QQK,3QQL,3QRT,3QRU,3QTQ,3QTR,3QTS,3QTU,3QTW,3QTX,3QTZ,3QU0,3QWJ,3QWK,3QX2,3QX4,3QXO,3QXP,3QZF,3QZG,3QZH,3QZI,3R1Q,3R1S,3R1Y,3R28,3R6X,3R71,3R73,3R7E,3R7I,3R7U,3R7V,3R7Y,3R83,3R8L,3R8M,3R8P,3R8U,3R8V,3R8Z,3R9D,3R9H,3R9N,3R9O,3RAH,3RAI,3RAK,3RAL,3RJC,3RK5,3RK7,3RK9,3RKB,3RM6,3RM7,3RMF,3RNI,3ROY,3RPO,3RPR,3RPV,3RPY,3RZB,3S00,3S0O,3S1H,3S2P,3SQQ,3SW4,3SW7,3TI1,3TIY,3TIZ,3TNW,3ULI,3UNJ,3UNK,3WBL,4ACM,4BCK,4BCM,4BCN,4BCO,4BCP,4BCQ,4BGH,4BZD,4CFM,4CFN,4CFU,4CFV,4CFW,4CFX,4D1X,4D1Z,4EK3,4EK4,4EK5,4EK6,4EK8,4EOQ,4EOR,4EOS,4ERW,4EZ3,4EZ7,4FKG,4FKI,4FKJ,4FKL,4FKO,4FKP,4FKQ,4FKR,4FKS,4FKT,4FKU,4FKV,4FKW,4FX3,4GCJ,4I3Z,4II5,4KD1,4LYN,4NJ3,4RJ3,5A14,5AND,5ANE,5ANG,5ANI,5ANJ,5ANK,5ANO,5CYI,5D1J,5FP5,5FP6,5IEV,5IEX,5IEY,5IF1,5JQ5,5JQ8,5K4J,5L2W,5LMK,5MHQ,5NEV,5OO0,5OSJ,5UQ1,5UQ2,5UQ3,6ATH,6GUB,6GUC,6GUE,6GUF,6GUH,6GUK,6GVA,6INL,6JGM,6OQI,6P3W,6Q3B,6Q3C,6Q3F,6Q48,6Q49,6Q4A,6Q4B,6Q4C,6Q4D,6Q4E,6Q4F,6Q4H,6Q4J,6Q4K,6RIJ,6SG4,7ACK,7B5L,7B5R,7B7S,7E34,7KJS,7M2F,7NVQ

> <UniProt (SwissProt) Recommended Name of Target Chain>
Cyclin-dependent kinase 2

> <UniProt (SwissProt) Entry Name of Target Chain>
CDK2_HUMAN

> <UniProt (SwissProt) Primary ID of Target Chain>
P24941

> <UniProt (SwissProt) Secondary ID(s) of Target Chain>
A8K7C6,O75100

> <UniProt (SwissProt) Alternative ID(s) of Target Chain>


> <UniProt (TrEMBL) Submitted Name of Target Chain>


> <UniProt (TrEMBL) Entry Name of Target Chain>


> <UniProt (TrEMBL) Primary ID of Target Chain>
A0A024RB77

> <UniProt (TrEMBL) Secondary ID(s) of Target Chain>


> <UniProt (TrEMBL) Alternative ID(s) of Target Chain>


$$$$
ttt_mol_1

Vconf v2.1
 52 57  0  0  0  0  0  0  0  0999 V2000
   -2.5290   -0.5250    0.5830 C   0  0  0  0  0  0  0  0  0  0  0
   -3.3890   -1.5510    0.1360 C   0  0  0  0  0  0  0  0  0  0  0
   -3.2600   -2.8180    0.6170 N   0  0  0  0  0  0  0  0  0  0  0
   -1.5360   -0.8250    1.5350 C   0  0  0  0  0  0  0  0  0  0  0
   -1.4280   -2.1440    2.0090 C   0  0  0  0  0  0  0  0  0  0  0
   -2.3050   -3.1150    1.5310 C   0  0  0  0  0  0  0  0  0  0  0
   -2.0120   -4.2840    2.1130 N   0  0  0  0  0  0  0  0  0  0  0
   -0.9740   -4.1030    2.9470 C   0  0  0  0  0  0  0  0  0  0  0
   -0.5680   -2.7650    2.9170 C   0  0  0  0  0  0  0  0  0  0  0
    0.4990   -2.2070    3.6470 C   0  0  0  0  0  0  0  0  0  0  0
    0.8040   -0.8900    3.5480 N   0  0  0  0  0  0  0  0  0  0  0
    1.8410   -0.3210    4.2090 C   0  0  0  0  0  0  0  0  0  0  0
    2.6470   -1.1170    5.0400 C   0  0  0  0  0  0  0  0  0  0  0
    2.3170   -2.4750    5.1490 C   0  0  0  0  0  0  0  0  0  0  0
    1.2660   -2.9780    4.4570 N   0  0  0  0  0  0  0  0  0  0  0
    3.6640   -0.6250    5.6940 F   0  0  0  0  0  0  0  0  0  0  0
    2.1120    0.9960    4.0580 N   0  0  0  0  0  0  0  0  0  0  0
    1.3290    1.8990    3.2790 C   0  0  1  0  0  0  0  0  0  0  0
    0.9510    3.1190    4.1490 C   0  0  2  0  0  0  0  0  0  0  0
   -0.0640    3.9670    3.3590 C   0  0  0  0  0  0  0  0  0  0  0
    0.5310    4.3610    1.9910 C   0  0  0  0  0  0  0  0  0  0  0
    2.0050    3.9090    1.8960 C   0  0  2  0  0  0  0  0  0  0  0
    2.1210    2.3680    2.0240 C   0  0  2  0  0  0  0  0  0  0  0
   -2.6480    0.6870    0.1200 F   0  0  0  0  0  0  0  0  0  0  0
    1.6930    1.6540    0.8030 C   0  0  0  0  0  0  0  0  0  0  0
    1.1380    2.2020   -0.2920 N   0  0  0  0  0  0  0  0  0  0  0
    1.7920    0.2890    0.5830 C   0  0  0  0  0  0  0  0  0  0  0
    1.2560    0.0750   -0.6720 C   0  0  0  0  0  0  0  0  0  0  0
    0.8730    1.2700   -1.1710 O   0  0  0  0  0  0  0  0  0  0  0
    1.1300   -1.1200   -1.2870 O   0  0  0  0  0  0  0  0  0  0  0
    2.2000    3.9860    4.4160 C   0  0  0  0  0  0  0  0  0  0  0
    2.7620    4.5330    3.0860 C   0  0  0  0  0  0  0  0  0  0  0
   -4.1130   -1.3470   -0.5530 H   0  0  0  0  0  0  0  0  0  0  0
   -0.9060   -0.0960    1.8670 H   0  0  0  0  0  0  0  0  0  0  0
   -2.4710   -5.1230    1.9540 H   0  0  0  0  0  0  0  0  0  0  0
   -0.5450   -4.8360    3.5130 H   0  0  0  0  0  0  0  0  0  0  0
    2.8700   -3.0920    5.7460 H   0  0  0  0  0  0  0  0  0  0  0
    2.8910    1.3500    4.5130 H   0  0  0  0  0  0  0  0  0  0  0
    0.3900    1.4330    2.9730 H   0  0  0  0  0  0  0  0  0  0  0
    0.5090    2.7920    5.0910 H   0  0  0  0  0  0  0  0  0  0  0
   -0.9790    3.3940    3.2070 H   0  0  0  0  0  0  0  0  0  0  0
   -0.3030    4.8670    3.9280 H   0  0  0  0  0  0  0  0  0  0  0
   -0.0530    3.8970    1.1960 H   0  0  0  0  0  0  0  0  0  0  0
    0.4770    5.4440    1.8720 H   0  0  0  0  0  0  0  0  0  0  0
    2.4480    4.2560    0.9610 H   0  0  0  0  0  0  0  0  0  0  0
    3.1790    2.1390    2.1670 H   0  0  0  0  0  0  0  0  0  0  0
    2.1680   -0.4140    1.2190 H   0  0  0  0  0  0  0  0  0  0  0
    0.7120   -1.0700   -2.1720 H   0  0  0  0  0  0  0  0  0  0  0
    2.9610    3.3840    4.9150 H   0  0  0  0  0  0  0  0  0  0  0
    1.9310    4.8190    5.0670 H   0  0  0  0  0  0  0  0  0  0  0
    2.6470    5.6170    3.0590 H   0  0  0  0  0  0  0  0  0  0  0
    3.8240    4.2920    3.0130 H   0  0  0  0  0  0  0  0  0  0  0
  1  2  2  0  0  0  0
  1  4  1  0  0  0  0
  1 24  1  0  0  0  0
  2  3  1  0  0  0  0
  2 33  1  0  0  0  0
  3  6  2  0  0  0  0
  4  5  2  0  0  0  0
  4 34  1  0  0  0  0
  5  6  1  0  0  0  0
  5  9  1  0  0  0  0
  6  7  1  0  0  0  0
  7  8  1  0  0  0  0
  7 35  1  0  0  0  0
  8  9  2  0  0  0  0
  8 36  1  0  0  0  0
  9 10  1  0  0  0  0
 10 11  2  0  0  0  0
 10 15  1  0  0  0  0
 11 12  1  0  0  0  0
 12 13  2  0  0  0  0
 12 17  1  0  0  0  0
 13 14  1  0  0  0  0
 13 16  1  0  0  0  0
 14 15  2  0  0  0  0
 14 37  1  0  0  0  0
 18 17  1  1  0  0  0
 17 38  1  0  0  0  0
 18 19  1  0  0  0  0
 18 23  1  0  0  0  0
 18 39  1  0  0  0  0
 19 20  1  0  0  0  0
 19 31  1  0  0  0  0
 19 40  1  0  0  0  0
 20 21  1  0  0  0  0
 20 41  1  0  0  0  0
 20 42  1  0  0  0  0
 21 22  1  0  0  0  0
 21 43  1  0  0  0  0
 21 44  1  0  0  0  0
 22 23  1  0  0  0  0
 22 32  1  0  0  0  0
 22 45  1  0  0  0  0
 23 25  1  6  0  0  0
 23 46  1  0  0  0  0
 25 26  2  0  0  0  0
 25 27  1  0  0  0  0
 26 29  1  0  0  0  0
 27 28  2  0  0  0  0
 27 47  1  0  0  0  0
 28 29  1  0  0  0  0
 28 30  1  0  0  0  0
 30 48  1  0  0  0  0
 31 32  1  0  0  0  0
 31 49  1  0  0  0  0
 31 50  1  0  0  0  0
 32 51  1  0  0  0  0
 32 52  1  0  0  0  0
M  END
> <From>
www.bindingDB.org

> <BindingDB Reactant_set_id>
50304421

> <Ligand InChI>
InChI=1S/C22H20F2N6O2/c23-12-5-13-14(8-26-20(13)25-7-12)21-27-9-15(24)22(29-21)28-19-11-3-1-10(2-4-11)18(19)16-6-17(31)32-30-16/h5-11,18-19,31H,1-4H2,(H,25,26)(H,27,28,29)/t10?,11?,18-,19+/m1/s1

> <Ligand InChI Key>
DFYXXJJSVFEUQI-DJZCKWSOSA-N

> <BindingDB MonomerID>
50067515

> <BindingDB Ligand Name>
CHEMBL3401979

> <Target Name Assigned by Curator or DataSource>
Cyclin-dependent kinase 2

> <Target Source Organism According to Curator or DataSource>
Homo sapiens

> <Ki (nM)>
>4000

> <IC50 (nM)>


> <Kd (nM)>


> <EC50 (nM)>


> <kon (M-1-s-1)>


> <koff (s-1)>


> <pH>


> <Temp C>


> <Curation/DataSource>
ChEMBL

> <Article DOI>
10.1016/j.bmcl.2015.03.013

> <PMID>
25827523

> <PubChem AID>


> <Patent Number>


> <Authors>
Boyd, MJ; Bandarage, UK; Bennett, H; Byrn, RR; Davies, I; Gu, W; Jacobs, M; Ledeboer, MW; Ledford, B; Leeman, JR; Perola, E; Wang, T; Bennani, Y; Clark, MP; Charifson, PS

> <Institution>
Vertex Pharmaceuticals Inc

> <Link to Ligand in BindingDB>
http://www.bindingdb.org/bind/chemsearch/marvin/MolStructure.jsp?monomerid=50067515

> <Link to Ligand-Target Pair in BindingDB>
http://www.bindingdb.org/jsp/dbsearch/PrimarySearch_ki.jsp?energyterm=kJ/mole&tag=pol&polymerid=796&target=Cyclin-dependent+kinase+2&column=ki&startPg=0&Increment=50&submit=Search

> <Link to Ligand-Target Pair in BindingDB>
http://www.bindingdb.org/jsp/dbsearch/PrimarySearch_ki.jsp?energyterm=kJ/mole&tag=r21&monomerid=50067515&enzyme=Cyclin-dependent+kinase+2&column=ki&startPg=0&Increment=50&submit=Search

> <Ligand HET ID in PDB>


> <PDB ID(s) for Ligand-Target Complex>


> <PubChem CID>
118728815

> <PubChem SID>
103961954

> <ChEBI ID of Ligand>


> <ChEMBL ID of Ligand>
CHEMBL3401979

> <DrugBank ID of Ligand>


> <IUPHAR_GRAC ID of Ligand>


> <KEGG ID of Ligand>


> <ZINC ID of Ligand>
ZINC01903043

> <Number of Protein Chains in Target (bigger than 1 implies a multichain complex)>
1

> <BindingDB Target Chain Sequence>
MENFQKVEKIGEGTYGVVYKARNKLTGEVVALKKIRLDTETEGVPSTAIREISLLKELNHPNIVKLLDVIHTENKLYLVFEFLHQDLKKFMDASALTGIPLPLIKSYLFQLLQGLAFCHSHRVLHRDLKPQNLLINTEGAIKLADFGLARAFGVPVRTYTHEVVTLWYRAPEILLGCKYYSTAVDIWSLGCIFAEMVTRRALFPGDSEIDQLFRIFRTLGTPDEVVWPGVTSMPDYKPSFPKWARQDFSKVVPPLDEDGRSLLSQMLHYDPNKRISAKAALAHPFFQDVTKPVPHLRL

> <PDB ID(s) of Target Chain>
1CKP,1DI8,1DM2,1E1V,1E1X,1E9H,1F5Q,1FIN,1FQ1,1FVT,1FVV,1G5S,1GIH,1GY3,1GZ8,1H00,1H01,1H07,1H08,1H0V,1H0W,1H1P,1H1Q,1H1R,1H1S,1H24,1H25,1H26,1H27,1H28,1HCK,1HCL,1JST,1JSU,1JSV,1JVP,1KE5,1KE6,1KE7,1KE8,1KE9,1OGU,1OI9,1OIQ,1OIR,1OIU,1OIY,1OKV,1OKW,1OL1,1OL2,1P2A,1P5E,1PF8,1PKD,1PW2,1PXI,1PXJ,1PXK,1PXL,1PXM,1PXN,1PXO,1PXP,1PYE,1QMZ,1R78,1URC,1URW,1V1K,1VYW,1VYZ,1W0X,1W8C,1W98,1WCC,1Y8Y,1Y91,1YKR,2A0C,2A4L,2B52,2B53,2B54,2B55,2BHE,2BHH,2BKZ,2BPM,2BTR,2BTS,2C4G,2C5N,2C5O,2C5V,2C5X,2C5Y,2C68,2C69,2C6I,2C6K,2C6L,2C6M,2C6O,2C6T,2CCH,2CCI,2CJM,2CLX,2DUV,2EXM,2FVD,2G9X,2I40,2J9M,2JGZ,2R3F,2R3G,2R3H,2R3I,2R3J,2R3K,2R3L,2R3M,2R3N,2R3O,2R3P,2R3Q,2R3R,2R64,2UUE,2UZB,2UZD,2UZE,2UZL,2UZN,2UZO,2V0D,2V22,2VTA,2VTH,2VTI,2VTJ,2VTL,2VTM,2VTN,2VTO,2VTP,2VTQ,2VTR,2VTS,2VTT,2VU3,2VV9,2W05,2W06,2W17,2W1H,2WEV,2WFY,2WHB,2WIH,2WIP,2WMA,2WMB,2WPA,2WXV,2X1N,2XMY,2XNB,3BHT,3BHU,3BHV,3DDP,3DDQ,3DOG,3EID,3EJ1,3EOC,3EZR,3EZV,3F5X,3FZ1,3IG7,3IGG,3LE6,3LFN,3LFQ,3LFS,3MY5,3NS9,3PJ8,3PXF,3PXQ,3PXR,3PXY,3PXZ,3PY0,3PY1,3QHR,3QHW,3QL8,3QQF,3QQG,3QQH,3QQJ,3QQK,3QQL,3QRT,3QRU,3QTQ,3QTR,3QTS,3QTU,3QTW,3QTX,3QTZ,3QU0,3QWJ,3QWK,3QX2,3QX4,3QXO,3QXP,3QZF,3QZG,3QZH,3QZI,3R1Q,3R1S,3R1Y,3R28,3R6X,3R71,3R73,3R7E,3R7I,3R7U,3R7V,3R7Y,3R83,3R8L,3R8M,3R8P,3R8U,3R8V,3R8Z,3R9D,3R9H,3R9N,3R9O,3RAH,3RAI,3RAK,3RAL,3RJC,3RK5,3RK7,3RK9,3RKB,3RM6,3RM7,3RMF,3RNI,3ROY,3RPO,3RPR,3RPV,3RPY,3RZB,3S00,3S0O,3S1H,3S2P,3SQQ,3SW4,3SW7,3TI1,3TIY,3TIZ,3TNW,3ULI,3UNJ,3UNK,3WBL,4ACM,4BCK,4BCM,4BCN,4BCO,4BCP,4BCQ,4BGH,4BZD,4CFM,4CFN,4CFU,4CFV,4CFW,4CFX,4D1X,4D1Z,4EK3,4EK4,4EK5,4EK6,4EK8,4EOQ,4EOR,4EOS,4ERW,4EZ3,4EZ7,4FKG,4FKI,4FKJ,4FKL,4FKO,4FKP,4FKQ,4FKR,4FKS,4FKT,4FKU,4FKV,4FKW,4FX3,4GCJ,4I3Z,4II5,4KD1,4LYN,4NJ3,4RJ3,5A14,5AND,5ANE,5ANG,5ANI,5ANJ,5ANK,5ANO,5CYI,5D1J,5FP5,5FP6,5IEV,5IEX,5IEY,5IF1,5JQ5,5JQ8,5K4J,5L2W,5LMK,5MHQ,5NEV,5OO0,5OSJ,5UQ1,5UQ2,5UQ3,6ATH,6GUB,6GUC,6GUE,6GUF,6GUH,6GUK,6GVA,6INL,6JGM,6OQI,6P3W,6Q3B,6Q3C,6Q3F,6Q48,6Q49,6Q4A,6Q4B,6Q4C,6Q4D,6Q4E,6Q4F,6Q4H,6Q4J,6Q4K,6RIJ,6SG4,7ACK,7B5L,7B5R,7B7S,7E34,7KJS,7M2F,7NVQ

> <UniProt (SwissProt) Recommended Name of Target Chain>
Cyclin-dependent kinase 2

> <UniProt (SwissProt) Entry Name of Target Chain>
CDK2_HUMAN

> <UniProt (SwissProt) Primary ID of Target Chain>
P24941

> <UniProt (SwissProt) Secondary ID(s) of Target Chain>
A8K7C6,O75100

> <UniProt (SwissProt) Alternative ID(s) of Target Chain>


> <UniProt (TrEMBL) Submitted Name of Target Chain>


> <UniProt (TrEMBL) Entry Name of Target Chain>


> <UniProt (TrEMBL) Primary ID of Target Chain>
A0A024RB77

> <UniProt (TrEMBL) Secondary ID(s) of Target Chain>


> <UniProt (TrEMBL) Alternative ID(s) of Target Chain>


$$$$
ttt_mol_1

Vconf v2.1
 51 56  0  0  0  0  0  0  0  0999 V2000
    2.7760    4.7390    0.2610 C   0  0  0  0  0  0  0  0  0  0  0
    2.2430    6.0460    0.2510 C   0  0  0  0  0  0  0  0  0  0  0
    0.9030    6.2460    0.3840 N   0  0  0  0  0  0  0  0  0  0  0
    1.9060    3.6420    0.4130 C   0  0  0  0  0  0  0  0  0  0  0
    0.5270    3.8840    0.5430 C   0  0  0  0  0  0  0  0  0  0  0
    0.0600    5.1960    0.5270 C   0  0  0  0  0  0  0  0  0  0  0
   -1.2710    5.1810    0.6660 N   0  0  0  0  0  0  0  0  0  0  0
   -1.6800    3.9040    0.7660 C   0  0  0  0  0  0  0  0  0  0  0
   -0.5790    3.0460    0.6920 C   0  0  0  0  0  0  0  0  0  0  0
   -0.6230    1.6390    0.7490 C   0  0  0  0  0  0  0  0  0  0  0
    0.5090    0.8980    0.6670 N   0  0  0  0  0  0  0  0  0  0  0
    0.5090   -0.4570    0.7040 C   0  0  0  0  0  0  0  0  0  0  0
   -0.7110   -1.1420    0.8320 C   0  0  0  0  0  0  0  0  0  0  0
   -1.8780   -0.3690    0.9230 C   0  0  0  0  0  0  0  0  0  0  0
   -1.8030    0.9830    0.8780 N   0  0  0  0  0  0  0  0  0  0  0
   -0.7710   -2.4450    0.8690 F   0  0  0  0  0  0  0  0  0  0  0
    1.6690   -1.1440    0.5990 N   0  0  0  0  0  0  0  0  0  0  0
    2.9550   -0.5380    0.4980 C   0  0  1  0  0  0  0  0  0  0  0
    3.9320   -1.2310    1.4740 C   0  0  2  0  0  0  0  0  0  0  0
    5.2320   -0.4030    1.5050 C   0  0  0  0  0  0  0  0  0  0  0
    5.7820   -0.2330    0.0730 C   0  0  0  0  0  0  0  0  0  0  0
    4.9760   -1.1040   -0.9170 C   0  0  2  0  0  0  0  0  0  0  0
    3.4930   -0.6530   -0.9560 C   0  0  2  0  0  0  0  0  0  0  0
    4.0580    4.5460    0.1320 F   0  0  0  0  0  0  0  0  0  0  0
    3.2790    0.5960   -1.7090 C   0  0  0  0  0  0  0  0  0  0  0
    4.1910    1.3250   -2.2880 N   0  0  0  0  0  0  0  0  0  0  0
    2.0900    1.1740   -1.8990 N   0  0  0  0  0  0  0  0  0  0  0
    2.2180    2.2710   -2.5870 O   0  0  0  0  0  0  0  0  0  0  0
    3.5530    2.3350   -2.8170 C   0  0  0  0  0  0  0  0  0  0  0
    4.1090    3.2540   -3.4550 O   0  0  0  0  0  0  0  0  0  0  0
    4.2730   -2.6460    0.9610 C   0  0  0  0  0  0  0  0  0  0  0
    5.0040   -2.5560   -0.3970 C   0  0  0  0  0  0  0  0  0  0  0
    2.8630    6.8500    0.1420 H   0  0  0  0  0  0  0  0  0  0  0
    2.2760    2.6930    0.4220 H   0  0  0  0  0  0  0  0  0  0  0
   -1.8440    5.9630    0.6870 H   0  0  0  0  0  0  0  0  0  0  0
   -2.6520    3.6100    0.8760 H   0  0  0  0  0  0  0  0  0  0  0
   -2.7870   -0.8220    1.0190 H   0  0  0  0  0  0  0  0  0  0  0
    1.6200   -2.1120    0.5810 H   0  0  0  0  0  0  0  0  0  0  0
    2.9100    0.5120    0.7980 H   0  0  0  0  0  0  0  0  0  0  0
    3.4990   -1.2830    2.4740 H   0  0  0  0  0  0  0  0  0  0  0
    5.0320    0.5780    1.9370 H   0  0  0  0  0  0  0  0  0  0  0
    5.9710   -0.9150    2.1230 H   0  0  0  0  0  0  0  0  0  0  0
    5.7160    0.8150   -0.2190 H   0  0  0  0  0  0  0  0  0  0  0
    6.8300   -0.5350    0.0490 H   0  0  0  0  0  0  0  0  0  0  0
    5.4240   -1.0620   -1.9120 H   0  0  0  0  0  0  0  0  0  0  0
    2.9330   -1.4290   -1.4800 H   0  0  0  0  0  0  0  0  0  0  0
    1.2520    0.8360   -1.5450 H   0  0  0  0  0  0  0  0  0  0  0
    4.9140   -3.1500    1.6850 H   0  0  0  0  0  0  0  0  0  0  0
    3.3550   -3.2220    0.8450 H   0  0  0  0  0  0  0  0  0  0  0
    6.0390   -2.8760   -0.2760 H   0  0  0  0  0  0  0  0  0  0  0
    4.5160   -3.2130   -1.1180 H   0  0  0  0  0  0  0  0  0  0  0
  1  2  2  0  0  0  0
  1  4  1  0  0  0  0
  1 24  1  0  0  0  0
  2  3  1  0  0  0  0
  2 33  1  0  0  0  0
  3  6  2  0  0  0  0
  4  5  2  0  0  0  0
  4 34  1  0  0  0  0
  5  6  1  0  0  0  0
  5  9  1  0  0  0  0
  6  7  1  0  0  0  0
  7  8  1  0  0  0  0
  7 35  1  0  0  0  0
  8  9  2  0  0  0  0
  8 36  1  0  0  0  0
  9 10  1  0  0  0  0
 10 11  2  0  0  0  0
 10 15  1  0  0  0  0
 11 12  1  0  0  0  0
 12 13  2  0  0  0  0
 12 17  1  0  0  0  0
 13 14  1  0  0  0  0
 13 16  1  0  0  0  0
 14 15  2  0  0  0  0
 14 37  1  0  0  0  0
 18 17  1  6  0  0  0
 17 38  1  0  0  0  0
 18 19  1  0  0  0  0
 18 23  1  0  0  0  0
 18 39  1  0  0  0  0
 19 20  1  0  0  0  0
 19 31  1  0  0  0  0
 19 40  1  0  0  0  0
 20 21  1  0  0  0  0
 20 41  1  0  0  0  0
 20 42  1  0  0  0  0
 21 22  1  0  0  0  0
 21 43  1  0  0  0  0
 21 44  1  0  0  0  0
 22 23  1  0  0  0  0
 22 32  1  0  0  0  0
 22 45  1  0  0  0  0
 23 25  1  1  0  0  0
 23 46  1  0  0  0  0
 25 26  2  0  0  0  0
 25 27  1  0  0  0  0
 26 29  1  0  0  0  0
 27 28  1  0  0  0  0
 27 47  1  0  0  0  0
 28 29  1  0  0  0  0
 29 30  2  0  0  0  0
 31 32  1  0  0  0  0
 31 48  1  0  0  0  0
 31 49  1  0  0  0  0
 32 50  1  0  0  0  0
 32 51  1  0  0  0  0
M  END
> <From>
www.bindingDB.org

> <BindingDB Reactant_set_id>
50304420

> <Ligand InChI>
InChI=1S/C21H19F2N7O2/c22-11-5-12-13(7-25-17(12)24-6-11)18-26-8-14(23)19(28-18)27-16-10-3-1-9(2-4-10)15(16)20-29-21(31)32-30-20/h5-10,15-16H,1-4H2,(H,24,25)(H,26,27,28)(H,29,30,31)/t9?,10?,15-,16-/m0/s1

> <Ligand InChI Key>
YQHXFSMWBWXLGR-SBBZOCNPSA-N

> <BindingDB MonomerID>
50067520

> <BindingDB Ligand Name>
CHEMBL3401982

> <Target Name Assigned by Curator or DataSource>
Cyclin-dependent kinase 2

> <Target Source Organism According to Curator or DataSource>
Homo sapiens

> <Ki (nM)>
>4000

> <IC50 (nM)>


> <Kd (nM)>


> <EC50 (nM)>


> <kon (M-1-s-1)>


> <koff (s-1)>


> <pH>


> <Temp C>


> <Curation/DataSource>
ChEMBL

> <Article DOI>
10.1016/j.bmcl.2015.03.013

> <PMID>
25827523

> <PubChem AID>


> <Patent Number>


> <Authors>
Boyd, MJ; Bandarage, UK; Bennett, H; Byrn, RR; Davies, I; Gu, W; Jacobs, M; Ledeboer, MW; Ledford, B; Leeman, JR; Perola, E; Wang, T; Bennani, Y; Clark, MP; Charifson, PS

> <Institution>
Vertex Pharmaceuticals Inc

> <Link to Ligand in BindingDB>
http://www.bindingdb.org/bind/chemsearch/marvin/MolStructure.jsp?monomerid=50067520

> <Link to Ligand-Target Pair in BindingDB>
http://www.bindingdb.org/jsp/dbsearch/PrimarySearch_ki.jsp?energyterm=kJ/mole&tag=pol&polymerid=796&target=Cyclin-dependent+kinase+2&column=ki&startPg=0&Increment=50&submit=Search

> <Link to Ligand-Target Pair in BindingDB>
http://www.bindingdb.org/jsp/dbsearch/PrimarySearch_ki.jsp?energyterm=kJ/mole&tag=r21&monomerid=50067520&enzyme=Cyclin-dependent+kinase+2&column=ki&startPg=0&Increment=50&submit=Search

> <Ligand HET ID in PDB>


> <PDB ID(s) for Ligand-Target Complex>


> <PubChem CID>
118728818

> <PubChem SID>
103961959

> <ChEBI ID of Ligand>


> <ChEMBL ID of Ligand>
CHEMBL3401982

> <DrugBank ID of Ligand>


> <IUPHAR_GRAC ID of Ligand>


> <KEGG ID of Ligand>


> <ZINC ID of Ligand>
ZINC01996441

> <Number of Protein Chains in Target (bigger than 1 implies a multichain complex)>
1

> <BindingDB Target Chain Sequence>
MENFQKVEKIGEGTYGVVYKARNKLTGEVVALKKIRLDTETEGVPSTAIREISLLKELNHPNIVKLLDVIHTENKLYLVFEFLHQDLKKFMDASALTGIPLPLIKSYLFQLLQGLAFCHSHRVLHRDLKPQNLLINTEGAIKLADFGLARAFGVPVRTYTHEVVTLWYRAPEILLGCKYYSTAVDIWSLGCIFAEMVTRRALFPGDSEIDQLFRIFRTLGTPDEVVWPGVTSMPDYKPSFPKWARQDFSKVVPPLDEDGRSLLSQMLHYDPNKRISAKAALAHPFFQDVTKPVPHLRL

> <PDB ID(s) of Target Chain>
1CKP,1DI8,1DM2,1E1V,1E1X,1E9H,1F5Q,1FIN,1FQ1,1FVT,1FVV,1G5S,1GIH,1GY3,1GZ8,1H00,1H01,1H07,1H08,1H0V,1H0W,1H1P,1H1Q,1H1R,1H1S,1H24,1H25,1H26,1H27,1H28,1HCK,1HCL,1JST,1JSU,1JSV,1JVP,1KE5,1KE6,1KE7,1KE8,1KE9,1OGU,1OI9,1OIQ,1OIR,1OIU,1OIY,1OKV,1OKW,1OL1,1OL2,1P2A,1P5E,1PF8,1PKD,1PW2,1PXI,1PXJ,1PXK,1PXL,1PXM,1PXN,1PXO,1PXP,1PYE,1QMZ,1R78,1URC,1URW,1V1K,1VYW,1VYZ,1W0X,1W8C,1W98,1WCC,1Y8Y,1Y91,1YKR,2A0C,2A4L,2B52,2B53,2B54,2B55,2BHE,2BHH,2BKZ,2BPM,2BTR,2BTS,2C4G,2C5N,2C5O,2C5V,2C5X,2C5Y,2C68,2C69,2C6I,2C6K,2C6L,2C6M,2C6O,2C6T,2CCH,2CCI,2CJM,2CLX,2DUV,2EXM,2FVD,2G9X,2I40,2J9M,2JGZ,2R3F,2R3G,2R3H,2R3I,2R3J,2R3K,2R3L,2R3M,2R3N,2R3O,2R3P,2R3Q,2R3R,2R64,2UUE,2UZB,2UZD,2UZE,2UZL,2UZN,2UZO,2V0D,2V22,2VTA,2VTH,2VTI,2VTJ,2VTL,2VTM,2VTN,2VTO,2VTP,2VTQ,2VTR,2VTS,2VTT,2VU3,2VV9,2W05,2W06,2W17,2W1H,2WEV,2WFY,2WHB,2WIH,2WIP,2WMA,2WMB,2WPA,2WXV,2X1N,2XMY,2XNB,3BHT,3BHU,3BHV,3DDP,3DDQ,3DOG,3EID,3EJ1,3EOC,3EZR,3EZV,3F5X,3FZ1,3IG7,3IGG,3LE6,3LFN,3LFQ,3LFS,3MY5,3NS9,3PJ8,3PXF,3PXQ,3PXR,3PXY,3PXZ,3PY0,3PY1,3QHR,3QHW,3QL8,3QQF,3QQG,3QQH,3QQJ,3QQK,3QQL,3QRT,3QRU,3QTQ,3QTR,3QTS,3QTU,3QTW,3QTX,3QTZ,3QU0,3QWJ,3QWK,3QX2,3QX4,3QXO,3QXP,3QZF,3QZG,3QZH,3QZI,3R1Q,3R1S,3R1Y,3R28,3R6X,3R71,3R73,3R7E,3R7I,3R7U,3R7V,3R7Y,3R83,3R8L,3R8M,3R8P,3R8U,3R8V,3R8Z,3R9D,3R9H,3R9N,3R9O,3RAH,3RAI,3RAK,3RAL,3RJC,3RK5,3RK7,3RK9,3RKB,3RM6,3RM7,3RMF,3RNI,3ROY,3RPO,3RPR,3RPV,3RPY,3RZB,3S00,3S0O,3S1H,3S2P,3SQQ,3SW4,3SW7,3TI1,3TIY,3TIZ,3TNW,3ULI,3UNJ,3UNK,3WBL,4ACM,4BCK,4BCM,4BCN,4BCO,4BCP,4BCQ,4BGH,4BZD,4CFM,4CFN,4CFU,4CFV,4CFW,4CFX,4D1X,4D1Z,4EK3,4EK4,4EK5,4EK6,4EK8,4EOQ,4EOR,4EOS,4ERW,4EZ3,4EZ7,4FKG,4FKI,4FKJ,4FKL,4FKO,4FKP,4FKQ,4FKR,4FKS,4FKT,4FKU,4FKV,4FKW,4FX3,4GCJ,4I3Z,4II5,4KD1,4LYN,4NJ3,4RJ3,5A14,5AND,5ANE,5ANG,5ANI,5ANJ,5ANK,5ANO,5CYI,5D1J,5FP5,5FP6,5IEV,5IEX,5IEY,5IF1,5JQ5,5JQ8,5K4J,5L2W,5LMK,5MHQ,5NEV,5OO0,5OSJ,5UQ1,5UQ2,5UQ3,6ATH,6GUB,6GUC,6GUE,6GUF,6GUH,6GUK,6GVA,6INL,6JGM,6OQI,6P3W,6Q3B,6Q3C,6Q3F,6Q48,6Q49,6Q4A,6Q4B,6Q4C,6Q4D,6Q4E,6Q4F,6Q4H,6Q4J,6Q4K,6RIJ,6SG4,7ACK,7B5L,7B5R,7B7S,7E34,7KJS,7M2F,7NVQ

> <UniProt (SwissProt) Recommended Name of Target Chain>
Cyclin-dependent kinase 2

> <UniProt (SwissProt) Entry Name of Target Chain>
CDK2_HUMAN

> <UniProt (SwissProt) Primary ID of Target Chain>
P24941

> <UniProt (SwissProt) Secondary ID(s) of Target Chain>
A8K7C6,O75100

> <UniProt (SwissProt) Alternative ID(s) of Target Chain>


> <UniProt (TrEMBL) Submitted Name of Target Chain>


> <UniProt (TrEMBL) Entry Name of Target Chain>


> <UniProt (TrEMBL) Primary ID of Target Chain>
A0A024RB77

> <UniProt (TrEMBL) Secondary ID(s) of Target Chain>


> <UniProt (TrEMBL) Alternative ID(s) of Target Chain>


$$$$
ttt_mol_1

Vconf v2.1
 50 55  0  0  0  0  0  0  0  0999 V2000
   -2.4430    0.2270    0.3280 C   0  0  0  0  0  0  0  0  0  0  0
   -3.2930   -0.8890    0.4840 C   0  0  0  0  0  0  0  0  0  0  0
   -2.7720   -2.1290    0.6990 N   0  0  0  0  0  0  0  0  0  0  0
   -1.0480    0.0460    0.4000 C   0  0  0  0  0  0  0  0  0  0  0
   -0.5440   -1.2480    0.6190 C   0  0  0  0  0  0  0  0  0  0  0
   -1.4310   -2.3120    0.7650 C   0  0  0  0  0  0  0  0  0  0  0
   -0.7310   -3.4350    0.9620 N   0  0  0  0  0  0  0  0  0  0  0
    0.5800   -3.1340    0.9450 C   0  0  0  0  0  0  0  0  0  0  0
    0.7500   -1.7630    0.7310 C   0  0  0  0  0  0  0  0  0  0  0
    1.9820   -1.0860    0.6460 C   0  0  0  0  0  0  0  0  0  0  0
    2.0350    0.2500    0.4300 N   0  0  0  0  0  0  0  0  0  0  0
    3.2010    0.9360    0.3310 C   0  0  0  0  0  0  0  0  0  0  0
    4.4180    0.2460    0.4540 C   0  0  0  0  0  0  0  0  0  0  0
    4.3550   -1.1360    0.6830 C   0  0  0  0  0  0  0  0  0  0  0
    3.1540   -1.7570    0.7700 N   0  0  0  0  0  0  0  0  0  0  0
    5.5690    0.8540    0.3610 F   0  0  0  0  0  0  0  0  0  0  0
    3.1930    2.2680    0.0950 N   0  0  0  0  0  0  0  0  0  0  0
    2.0110    3.0560   -0.0240 C   0  0  1  0  0  0  0  0  0  0  0
    2.1500    4.3370    0.8290 C   0  0  2  0  0  0  0  0  0  0  0
    0.7770    5.0370    0.8530 C   0  0  0  0  0  0  0  0  0  0  0
    0.2890    5.2890   -0.5900 C   0  0  0  0  0  0  0  0  0  0  0
    1.4050    4.9410   -1.6010 C   0  0  2  0  0  0  0  0  0  0  0
    1.7690    3.4370   -1.5110 C   0  0  2  0  0  0  0  0  0  0  0
    0.7700    2.5550   -2.1370 C   0  0  0  0  0  0  0  0  0  0  0
   -2.9410    1.4130    0.1210 F   0  0  0  0  0  0  0  0  0  0  0
    0.8460    1.2270   -2.2140 N   0  0  0  0  0  0  0  0  0  0  0
   -0.2050    0.7920   -2.8210 N   0  0  0  0  0  0  0  0  0  0  0
   -0.9380    1.8150   -3.1300 N   0  0  0  0  0  0  0  0  0  0  0
   -0.3760    2.9110   -2.7290 N   0  0  0  0  0  0  0  0  0  0  0
    3.1680    5.2970    0.1780 C   0  0  0  0  0  0  0  0  0  0  0
    2.6620    5.7460   -1.2100 C   0  0  0  0  0  0  0  0  0  0  0
   -4.3060   -0.7710    0.4350 H   0  0  0  0  0  0  0  0  0  0  0
   -0.4220    0.8420    0.2890 H   0  0  0  0  0  0  0  0  0  0  0
   -1.1080   -4.3180    1.0910 H   0  0  0  0  0  0  0  0  0  0  0
    1.3340   -3.8110    1.0670 H   0  0  0  0  0  0  0  0  0  0  0
    5.2130   -1.6790    0.7810 H   0  0  0  0  0  0  0  0  0  0  0
    4.0480    2.7120   -0.0150 H   0  0  0  0  0  0  0  0  0  0  0
    1.1470    2.5150    0.3700 H   0  0  0  0  0  0  0  0  0  0  0
    2.4580    4.0880    1.8450 H   0  0  0  0  0  0  0  0  0  0  0
    0.0540    4.4100    1.3770 H   0  0  0  0  0  0  0  0  0  0  0
    0.8650    5.9880    1.3810 H   0  0  0  0  0  0  0  0  0  0  0
   -0.5910    4.6770   -0.7880 H   0  0  0  0  0  0  0  0  0  0  0
    0.0140    6.3390   -0.7010 H   0  0  0  0  0  0  0  0  0  0  0
    1.0980    5.2100   -2.6130 H   0  0  0  0  0  0  0  0  0  0  0
    2.6980    3.2970   -2.0680 H   0  0  0  0  0  0  0  0  0  0  0
    1.5650    0.6800   -1.8610 H   0  0  0  0  0  0  0  0  0  0  0
    3.3020    6.1720    0.8160 H   0  0  0  0  0  0  0  0  0  0  0
    4.1280    4.7910    0.0720 H   0  0  0  0  0  0  0  0  0  0  0
    2.4150    6.8080   -1.1820 H   0  0  0  0  0  0  0  0  0  0  0
    3.4450    5.5870   -1.9520 H   0  0  0  0  0  0  0  0  0  0  0
  1  2  2  0  0  0  0
  1  4  1  0  0  0  0
  1 25  1  0  0  0  0
  2  3  1  0  0  0  0
  2 32  1  0  0  0  0
  3  6  2  0  0  0  0
  4  5  2  0  0  0  0
  4 33  1  0  0  0  0
  5  6  1  0  0  0  0
  5  9  1  0  0  0  0
  6  7  1  0  0  0  0
  7  8  1  0  0  0  0
  7 34  1  0  0  0  0
  8  9  2  0  0  0  0
  8 35  1  0  0  0  0
  9 10  1  0  0  0  0
 10 11  2  0  0  0  0
 10 15  1  0  0  0  0
 11 12  1  0  0  0  0
 12 13  2  0  0  0  0
 12 17  1  0  0  0  0
 13 14  1  0  0  0  0
 13 16  1  0  0  0  0
 14 15  2  0  0  0  0
 14 36  1  0  0  0  0
 18 17  1  1  0  0  0
 17 37  1  0  0  0  0
 18 19  1  0  0  0  0
 18 23  1  0  0  0  0
 18 38  1  0  0  0  0
 19 20  1  0  0  0  0
 19 30  1  0  0  0  0
 19 39  1  0  0  0  0
 20 21  1  0  0  0  0
 20 40  1  0  0  0  0
 20 41  1  0  0  0  0
 21 22  1  0  0  0  0
 21 42  1  0  0  0  0
 21 43  1  0  0  0  0
 22 23  1  0  0  0  0
 22 31  1  0  0  0  0
 22 44  1  0  0  0  0
 23 24  1  6  0  0  0
 23 45  1  0  0  0  0
 24 26  1  0  0  0  0
 24 29  2  0  0  0  0
 26 27  1  0  0  0  0
 26 46  1  0  0  0  0
 27 28  2  0  0  0  0
 28 29  1  0  0  0  0
 30 31  1  0  0  0  0
 30 47  1  0  0  0  0
 30 48  1  0  0  0  0
 31 49  1  0  0  0  0
 31 50  1  0  0  0  0
M  END
> <From>
www.bindingDB.org

> <BindingDB Reactant_set_id>
50304408

> <Ligand InChI>
InChI=1S/C20H19F2N9/c21-11-5-12-13(7-24-17(12)23-6-11)18-25-8-14(22)19(27-18)26-16-10-3-1-9(2-4-10)15(16)20-28-30-31-29-20/h5-10,15-16H,1-4H2,(H,23,24)(H,25,26,27)(H,28,29,30,31)/t9?,10?,15-,16-/m0/s1

> <Ligand InChI Key>
GUZDKGKFDUYPQP-SBBZOCNPSA-N

> <BindingDB MonomerID>
50067541

> <BindingDB Ligand Name>
CHEMBL3401975

> <Target Name Assigned by Curator or DataSource>
Cyclin-dependent kinase 2

> <Target Source Organism According to Curator or DataSource>
Homo sapiens

> <Ki (nM)>
>4000

> <IC50 (nM)>


> <Kd (nM)>


> <EC50 (nM)>


> <kon (M-1-s-1)>


> <koff (s-1)>


> <pH>


> <Temp C>


> <Curation/DataSource>
ChEMBL

> <Article DOI>
10.1016/j.bmcl.2015.03.013

> <PMID>
25827523

> <PubChem AID>


> <Patent Number>


> <Authors>
Boyd, MJ; Bandarage, UK; Bennett, H; Byrn, RR; Davies, I; Gu, W; Jacobs, M; Ledeboer, MW; Ledford, B; Leeman, JR; Perola, E; Wang, T; Bennani, Y; Clark, MP; Charifson, PS

> <Institution>
Vertex Pharmaceuticals Inc

> <Link to Ligand in BindingDB>
http://www.bindingdb.org/bind/chemsearch/marvin/MolStructure.jsp?monomerid=50067541

> <Link to Ligand-Target Pair in BindingDB>
http://www.bindingdb.org/jsp/dbsearch/PrimarySearch_ki.jsp?energyterm=kJ/mole&tag=pol&polymerid=796&target=Cyclin-dependent+kinase+2&column=ki&startPg=0&Increment=50&submit=Search

> <Link to Ligand-Target Pair in BindingDB>
http://www.bindingdb.org/jsp/dbsearch/PrimarySearch_ki.jsp?energyterm=kJ/mole&tag=r21&monomerid=50067541&enzyme=Cyclin-dependent+kinase+2&column=ki&startPg=0&Increment=50&submit=Search

> <Ligand HET ID in PDB>


> <PDB ID(s) for Ligand-Target Complex>


> <PubChem CID>
118728811

> <PubChem SID>
103961980

> <ChEBI ID of Ligand>


> <ChEMBL ID of Ligand>
CHEMBL3401975

> <DrugBank ID of Ligand>


> <IUPHAR_GRAC ID of Ligand>


> <KEGG ID of Ligand>


> <ZINC ID of Ligand>


> <Number of Protein Chains in Target (bigger than 1 implies a multichain complex)>
1

> <BindingDB Target Chain Sequence>
MENFQKVEKIGEGTYGVVYKARNKLTGEVVALKKIRLDTETEGVPSTAIREISLLKELNHPNIVKLLDVIHTENKLYLVFEFLHQDLKKFMDASALTGIPLPLIKSYLFQLLQGLAFCHSHRVLHRDLKPQNLLINTEGAIKLADFGLARAFGVPVRTYTHEVVTLWYRAPEILLGCKYYSTAVDIWSLGCIFAEMVTRRALFPGDSEIDQLFRIFRTLGTPDEVVWPGVTSMPDYKPSFPKWARQDFSKVVPPLDEDGRSLLSQMLHYDPNKRISAKAALAHPFFQDVTKPVPHLRL

> <PDB ID(s) of Target Chain>
1CKP,1DI8,1DM2,1E1V,1E1X,1E9H,1F5Q,1FIN,1FQ1,1FVT,1FVV,1G5S,1GIH,1GY3,1GZ8,1H00,1H01,1H07,1H08,1H0V,1H0W,1H1P,1H1Q,1H1R,1H1S,1H24,1H25,1H26,1H27,1H28,1HCK,1HCL,1JST,1JSU,1JSV,1JVP,1KE5,1KE6,1KE7,1KE8,1KE9,1OGU,1OI9,1OIQ,1OIR,1OIU,1OIY,1OKV,1OKW,1OL1,1OL2,1P2A,1P5E,1PF8,1PKD,1PW2,1PXI,1PXJ,1PXK,1PXL,1PXM,1PXN,1PXO,1PXP,1PYE,1QMZ,1R78,1URC,1URW,1V1K,1VYW,1VYZ,1W0X,1W8C,1W98,1WCC,1Y8Y,1Y91,1YKR,2A0C,2A4L,2B52,2B53,2B54,2B55,2BHE,2BHH,2BKZ,2BPM,2BTR,2BTS,2C4G,2C5N,2C5O,2C5V,2C5X,2C5Y,2C68,2C69,2C6I,2C6K,2C6L,2C6M,2C6O,2C6T,2CCH,2CCI,2CJM,2CLX,2DUV,2EXM,2FVD,2G9X,2I40,2J9M,2JGZ,2R3F,2R3G,2R3H,2R3I,2R3J,2R3K,2R3L,2R3M,2R3N,2R3O,2R3P,2R3Q,2R3R,2R64,2UUE,2UZB,2UZD,2UZE,2UZL,2UZN,2UZO,2V0D,2V22,2VTA,2VTH,2VTI,2VTJ,2VTL,2VTM,2VTN,2VTO,2VTP,2VTQ,2VTR,2VTS,2VTT,2VU3,2VV9,2W05,2W06,2W17,2W1H,2WEV,2WFY,2WHB,2WIH,2WIP,2WMA,2WMB,2WPA,2WXV,2X1N,2XMY,2XNB,3BHT,3BHU,3BHV,3DDP,3DDQ,3DOG,3EID,3EJ1,3EOC,3EZR,3EZV,3F5X,3FZ1,3IG7,3IGG,3LE6,3LFN,3LFQ,3LFS,3MY5,3NS9,3PJ8,3PXF,3PXQ,3PXR,3PXY,3PXZ,3PY0,3PY1,3QHR,3QHW,3QL8,3QQF,3QQG,3QQH,3QQJ,3QQK,3QQL,3QRT,3QRU,3QTQ,3QTR,3QTS,3QTU,3QTW,3QTX,3QTZ,3QU0,3QWJ,3QWK,3QX2,3QX4,3QXO,3QXP,3QZF,3QZG,3QZH,3QZI,3R1Q,3R1S,3R1Y,3R28,3R6X,3R71,3R73,3R7E,3R7I,3R7U,3R7V,3R7Y,3R83,3R8L,3R8M,3R8P,3R8U,3R8V,3R8Z,3R9D,3R9H,3R9N,3R9O,3RAH,3RAI,3RAK,3RAL,3RJC,3RK5,3RK7,3RK9,3RKB,3RM6,3RM7,3RMF,3RNI,3ROY,3RPO,3RPR,3RPV,3RPY,3RZB,3S00,3S0O,3S1H,3S2P,3SQQ,3SW4,3SW7,3TI1,3TIY,3TIZ,3TNW,3ULI,3UNJ,3UNK,3WBL,4ACM,4BCK,4BCM,4BCN,4BCO,4BCP,4BCQ,4BGH,4BZD,4CFM,4CFN,4CFU,4CFV,4CFW,4CFX,4D1X,4D1Z,4EK3,4EK4,4EK5,4EK6,4EK8,4EOQ,4EOR,4EOS,4ERW,4EZ3,4EZ7,4FKG,4FKI,4FKJ,4FKL,4FKO,4FKP,4FKQ,4FKR,4FKS,4FKT,4FKU,4FKV,4FKW,4FX3,4GCJ,4I3Z,4II5,4KD1,4LYN,4NJ3,4RJ3,5A14,5AND,5ANE,5ANG,5ANI,5ANJ,5ANK,5ANO,5CYI,5D1J,5FP5,5FP6,5IEV,5IEX,5IEY,5IF1,5JQ5,5JQ8,5K4J,5L2W,5LMK,5MHQ,5NEV,5OO0,5OSJ,5UQ1,5UQ2,5UQ3,6ATH,6GUB,6GUC,6GUE,6GUF,6GUH,6GUK,6GVA,6INL,6JGM,6OQI,6P3W,6Q3B,6Q3C,6Q3F,6Q48,6Q49,6Q4A,6Q4B,6Q4C,6Q4D,6Q4E,6Q4F,6Q4H,6Q4J,6Q4K,6RIJ,6SG4,7ACK,7B5L,7B5R,7B7S,7E34,7KJS,7M2F,7NVQ

> <UniProt (SwissProt) Recommended Name of Target Chain>
Cyclin-dependent kinase 2

> <UniProt (SwissProt) Entry Name of Target Chain>
CDK2_HUMAN

> <UniProt (SwissProt) Primary ID of Target Chain>
P24941

> <UniProt (SwissProt) Secondary ID(s) of Target Chain>
A8K7C6,O75100

> <UniProt (SwissProt) Alternative ID(s) of Target Chain>


> <UniProt (TrEMBL) Submitted Name of Target Chain>


> <UniProt (TrEMBL) Entry Name of Target Chain>


> <UniProt (TrEMBL) Primary ID of Target Chain>
A0A024RB77

> <UniProt (TrEMBL) Secondary ID(s) of Target Chain>


> <UniProt (TrEMBL) Alternative ID(s) of Target Chain>


$$$$
ttt_mol_1

Vconf v2.1
 50 54  0  0  0  0  0  0  0  0999 V2000
    0.4850    4.8460    0.0130 C   0  0  0  0  0  0  0  0  0  0  0
    1.0740    6.1110    0.2240 C   0  0  0  0  0  0  0  0  0  0  0
    2.3890    6.2130    0.5610 N   0  0  0  0  0  0  0  0  0  0  0
    1.2720    3.6860    0.1550 C   0  0  0  0  0  0  0  0  0  0  0
    2.6280    3.8280    0.5010 C   0  0  0  0  0  0  0  0  0  0  0
    3.1540    5.1030    0.6980 C   0  0  0  0  0  0  0  0  0  0  0
    4.4490    4.9910    1.0180 N   0  0  0  0  0  0  0  0  0  0  0
    4.7770    3.6870    1.0350 C   0  0  0  0  0  0  0  0  0  0  0
    3.6590    2.9120    0.7130 C   0  0  0  0  0  0  0  0  0  0  0
    3.6210    1.5070    0.6290 C   0  0  0  0  0  0  0  0  0  0  0
    2.4790    0.8590    0.2980 N   0  0  0  0  0  0  0  0  0  0  0
    2.3980   -0.4900    0.2000 C   0  0  0  0  0  0  0  0  0  0  0
    3.5390   -1.2690    0.4550 C   0  0  0  0  0  0  0  0  0  0  0
    4.7180   -0.5910    0.7980 C   0  0  0  0  0  0  0  0  0  0  0
    4.7280    0.7620    0.8740 N   0  0  0  0  0  0  0  0  0  0  0
    3.5190   -2.5720    0.3770 F   0  0  0  0  0  0  0  0  0  0  0
    1.2270   -1.0770   -0.1330 N   0  0  0  0  0  0  0  0  0  0  0
    0.0310   -0.3540   -0.4110 C   0  0  1  0  0  0  0  0  0  0  0
    0.1210    0.4180   -1.7500 C   0  0  2  0  0  0  0  0  0  0  0
   -1.1620    1.2590   -1.8990 C   0  0  0  0  0  0  0  0  0  0  0
   -2.4010    0.3400   -1.9400 C   0  0  0  0  0  0  0  0  0  0  0
   -1.9790   -1.1320   -1.7640 C   0  0  2  0  0  0  0  0  0  0  0
   -1.1720   -1.3310   -0.4600 C   0  0  2  0  0  0  0  0  0  0  0
   -2.1090   -1.1650    0.8950 P   0  0  0  0  0  0  0  0  0  0  0
   -0.7740    4.7480   -0.3090 F   0  0  0  0  0  0  0  0  0  0  0
   -1.3050   -1.6470    2.1150 O   0  0  0  0  0  0  0  0  0  0  0
   -2.5260    0.2950    1.1390 O   0  0  0  0  0  0  0  0  0  0  0
   -3.2890   -1.9830    0.7950 O   0  0  0  0  0  0  0  0  0  0  0
    0.1980   -0.5800   -2.9250 C   0  0  0  0  0  0  0  0  0  0  0
   -1.0490   -1.4910   -2.9400 C   0  0  0  0  0  0  0  0  0  0  0
    0.5130    6.9580    0.1260 H   0  0  0  0  0  0  0  0  0  0  0
    0.8610    2.7650    0.0100 H   0  0  0  0  0  0  0  0  0  0  0
    5.0480    5.7290    1.2070 H   0  0  0  0  0  0  0  0  0  0  0
    5.7060    3.3220    1.2510 H   0  0  0  0  0  0  0  0  0  0  0
    5.5730   -1.1140    0.9920 H   0  0  0  0  0  0  0  0  0  0  0
    1.1960   -2.0460   -0.1600 H   0  0  0  0  0  0  0  0  0  0  0
   -0.1330    0.3670    0.3920 H   0  0  0  0  0  0  0  0  0  0  0
    0.9900    1.0750   -1.7640 H   0  0  0  0  0  0  0  0  0  0  0
   -1.2470    1.9450   -1.0560 H   0  0  0  0  0  0  0  0  0  0  0
   -1.1090    1.8410   -2.8200 H   0  0  0  0  0  0  0  0  0  0  0
   -3.1020    0.6250   -1.1560 H   0  0  0  0  0  0  0  0  0  0  0
   -2.9010    0.4550   -2.9020 H   0  0  0  0  0  0  0  0  0  0  0
   -2.8550   -1.7800   -1.7710 H   0  0  0  0  0  0  0  0  0  0  0
   -0.8060   -2.3590   -0.4620 H   0  0  0  0  0  0  0  0  0  0  0
   -1.8140   -1.6500    2.9510 H   0  0  0  0  0  0  0  0  0  0  0
   -3.1180    0.4170    1.9090 H   0  0  0  0  0  0  0  0  0  0  0
    0.2550   -0.0280   -3.8630 H   0  0  0  0  0  0  0  0  0  0  0
    1.0950   -1.1910   -2.8230 H   0  0  0  0  0  0  0  0  0  0  0
   -1.5860   -1.3590   -3.8810 H   0  0  0  0  0  0  0  0  0  0  0
   -0.7410   -2.5340   -2.8570 H   0  0  0  0  0  0  0  0  0  0  0
  1  2  2  0  0  0  0
  1  4  1  0  0  0  0
  1 25  1  0  0  0  0
  2  3  1  0  0  0  0
  2 31  1  0  0  0  0
  3  6  2  0  0  0  0
  4  5  2  0  0  0  0
  4 32  1  0  0  0  0
  5  6  1  0  0  0  0
  5  9  1  0  0  0  0
  6  7  1  0  0  0  0
  7  8  1  0  0  0  0
  7 33  1  0  0  0  0
  8  9  2  0  0  0  0
  8 34  1  0  0  0  0
  9 10  1  0  0  0  0
 10 11  2  0  0  0  0
 10 15  1  0  0  0  0
 11 12  1  0  0  0  0
 12 13  2  0  0  0  0
 12 17  1  0  0  0  0
 13 14  1  0  0  0  0
 13 16  1  0  0  0  0
 14 15  2  0  0  0  0
 14 35  1  0  0  0  0
 18 17  1  1  0  0  0
 17 36  1  0  0  0  0
 18 19  1  0  0  0  0
 18 23  1  0  0  0  0
 18 37  1  0  0  0  0
 19 20  1  0  0  0  0
 19 29  1  0  0  0  0
 19 38  1  0  0  0  0
 20 21  1  0  0  0  0
 20 39  1  0  0  0  0
 20 40  1  0  0  0  0
 21 22  1  0  0  0  0
 21 41  1  0  0  0  0
 21 42  1  0  0  0  0
 22 23  1  0  0  0  0
 22 30  1  0  0  0  0
 22 43  1  0  0  0  0
 23 24  1  6  0  0  0
 23 44  1  0  0  0  0
 24 26  1  0  0  0  0
 24 27  1  0  0  0  0
 24 28  2  0  0  0  0
 26 45  1  0  0  0  0
 27 46  1  0  0  0  0
 29 30  1  0  0  0  0
 29 47  1  0  0  0  0
 29 48  1  0  0  0  0
 30 49  1  0  0  0  0
 30 50  1  0  0  0  0
M  END
> <From>
www.bindingDB.org

> <BindingDB Reactant_set_id>
50304411

> <Ligand InChI>
InChI=1S/C19H20F2N5O3P/c20-11-5-12-13(7-23-17(12)22-6-11)18-24-8-14(21)19(26-18)25-15-9-1-3-10(4-2-9)16(15)30(27,28)29/h5-10,15-16H,1-4H2,(H,22,23)(H,24,25,26)(H2,27,28,29)/t9?,10?,15-,16-/m0/s1

> <Ligand InChI Key>
UXVRWSBRRRIFQG-SBBZOCNPSA-N

> <BindingDB MonomerID>
50067542

> <BindingDB Ligand Name>
CHEMBL3401976

> <Target Name Assigned by Curator or DataSource>
Cyclin-dependent kinase 2

> <Target Source Organism According to Curator or DataSource>
Homo sapiens

> <Ki (nM)>
>4000

> <IC50 (nM)>


> <Kd (nM)>


> <EC50 (nM)>


> <kon (M-1-s-1)>


> <koff (s-1)>


> <pH>


> <Temp C>


> <Curation/DataSource>
ChEMBL

> <Article DOI>
10.1016/j.bmcl.2015.03.013

> <PMID>
25827523

> <PubChem AID>


> <Patent Number>


> <Authors>
Boyd, MJ; Bandarage, UK; Bennett, H; Byrn, RR; Davies, I; Gu, W; Jacobs, M; Ledeboer, MW; Ledford, B; Leeman, JR; Perola, E; Wang, T; Bennani, Y; Clark, MP; Charifson, PS

> <Institution>
Vertex Pharmaceuticals Inc

> <Link to Ligand in BindingDB>
http://www.bindingdb.org/bind/chemsearch/marvin/MolStructure.jsp?monomerid=50067542

> <Link to Ligand-Target Pair in BindingDB>
http://www.bindingdb.org/jsp/dbsearch/PrimarySearch_ki.jsp?energyterm=kJ/mole&tag=pol&polymerid=796&target=Cyclin-dependent+kinase+2&column=ki&startPg=0&Increment=50&submit=Search

> <Link to Ligand-Target Pair in BindingDB>
http://www.bindingdb.org/jsp/dbsearch/PrimarySearch_ki.jsp?energyterm=kJ/mole&tag=r21&monomerid=50067542&enzyme=Cyclin-dependent+kinase+2&column=ki&startPg=0&Increment=50&submit=Search

> <Ligand HET ID in PDB>


> <PDB ID(s) for Ligand-Target Complex>


> <PubChem CID>
118728812

> <PubChem SID>
103961981

> <ChEBI ID of Ligand>


> <ChEMBL ID of Ligand>
CHEMBL3401976

> <DrugBank ID of Ligand>


> <IUPHAR_GRAC ID of Ligand>


> <KEGG ID of Ligand>


> <ZINC ID of Ligand>
ZINC27427032

> <Number of Protein Chains in Target (bigger than 1 implies a multichain complex)>
1

> <BindingDB Target Chain Sequence>
MENFQKVEKIGEGTYGVVYKARNKLTGEVVALKKIRLDTETEGVPSTAIREISLLKELNHPNIVKLLDVIHTENKLYLVFEFLHQDLKKFMDASALTGIPLPLIKSYLFQLLQGLAFCHSHRVLHRDLKPQNLLINTEGAIKLADFGLARAFGVPVRTYTHEVVTLWYRAPEILLGCKYYSTAVDIWSLGCIFAEMVTRRALFPGDSEIDQLFRIFRTLGTPDEVVWPGVTSMPDYKPSFPKWARQDFSKVVPPLDEDGRSLLSQMLHYDPNKRISAKAALAHPFFQDVTKPVPHLRL

> <PDB ID(s) of Target Chain>
1CKP,1DI8,1DM2,1E1V,1E1X,1E9H,1F5Q,1FIN,1FQ1,1FVT,1FVV,1G5S,1GIH,1GY3,1GZ8,1H00,1H01,1H07,1H08,1H0V,1H0W,1H1P,1H1Q,1H1R,1H1S,1H24,1H25,1H26,1H27,1H28,1HCK,1HCL,1JST,1JSU,1JSV,1JVP,1KE5,1KE6,1KE7,1KE8,1KE9,1OGU,1OI9,1OIQ,1OIR,1OIU,1OIY,1OKV,1OKW,1OL1,1OL2,1P2A,1P5E,1PF8,1PKD,1PW2,1PXI,1PXJ,1PXK,1PXL,1PXM,1PXN,1PXO,1PXP,1PYE,1QMZ,1R78,1URC,1URW,1V1K,1VYW,1VYZ,1W0X,1W8C,1W98,1WCC,1Y8Y,1Y91,1YKR,2A0C,2A4L,2B52,2B53,2B54,2B55,2BHE,2BHH,2BKZ,2BPM,2BTR,2BTS,2C4G,2C5N,2C5O,2C5V,2C5X,2C5Y,2C68,2C69,2C6I,2C6K,2C6L,2C6M,2C6O,2C6T,2CCH,2CCI,2CJM,2CLX,2DUV,2EXM,2FVD,2G9X,2I40,2J9M,2JGZ,2R3F,2R3G,2R3H,2R3I,2R3J,2R3K,2R3L,2R3M,2R3N,2R3O,2R3P,2R3Q,2R3R,2R64,2UUE,2UZB,2UZD,2UZE,2UZL,2UZN,2UZO,2V0D,2V22,2VTA,2VTH,2VTI,2VTJ,2VTL,2VTM,2VTN,2VTO,2VTP,2VTQ,2VTR,2VTS,2VTT,2VU3,2VV9,2W05,2W06,2W17,2W1H,2WEV,2WFY,2WHB,2WIH,2WIP,2WMA,2WMB,2WPA,2WXV,2X1N,2XMY,2XNB,3BHT,3BHU,3BHV,3DDP,3DDQ,3DOG,3EID,3EJ1,3EOC,3EZR,3EZV,3F5X,3FZ1,3IG7,3IGG,3LE6,3LFN,3LFQ,3LFS,3MY5,3NS9,3PJ8,3PXF,3PXQ,3PXR,3PXY,3PXZ,3PY0,3PY1,3QHR,3QHW,3QL8,3QQF,3QQG,3QQH,3QQJ,3QQK,3QQL,3QRT,3QRU,3QTQ,3QTR,3QTS,3QTU,3QTW,3QTX,3QTZ,3QU0,3QWJ,3QWK,3QX2,3QX4,3QXO,3QXP,3QZF,3QZG,3QZH,3QZI,3R1Q,3R1S,3R1Y,3R28,3R6X,3R71,3R73,3R7E,3R7I,3R7U,3R7V,3R7Y,3R83,3R8L,3R8M,3R8P,3R8U,3R8V,3R8Z,3R9D,3R9H,3R9N,3R9O,3RAH,3RAI,3RAK,3RAL,3RJC,3RK5,3RK7,3RK9,3RKB,3RM6,3RM7,3RMF,3RNI,3ROY,3RPO,3RPR,3RPV,3RPY,3RZB,3S00,3S0O,3S1H,3S2P,3SQQ,3SW4,3SW7,3TI1,3TIY,3TIZ,3TNW,3ULI,3UNJ,3UNK,3WBL,4ACM,4BCK,4BCM,4BCN,4BCO,4BCP,4BCQ,4BGH,4BZD,4CFM,4CFN,4CFU,4CFV,4CFW,4CFX,4D1X,4D1Z,4EK3,4EK4,4EK5,4EK6,4EK8,4EOQ,4EOR,4EOS,4ERW,4EZ3,4EZ7,4FKG,4FKI,4FKJ,4FKL,4FKO,4FKP,4FKQ,4FKR,4FKS,4FKT,4FKU,4FKV,4FKW,4FX3,4GCJ,4I3Z,4II5,4KD1,4LYN,4NJ3,4RJ3,5A14,5AND,5ANE,5ANG,5ANI,5ANJ,5ANK,5ANO,5CYI,5D1J,5FP5,5FP6,5IEV,5IEX,5IEY,5IF1,5JQ5,5JQ8,5K4J,5L2W,5LMK,5MHQ,5NEV,5OO0,5OSJ,5UQ1,5UQ2,5UQ3,6ATH,6GUB,6GUC,6GUE,6GUF,6GUH,6GUK,6GVA,6INL,6JGM,6OQI,6P3W,6Q3B,6Q3C,6Q3F,6Q48,6Q49,6Q4A,6Q4B,6Q4C,6Q4D,6Q4E,6Q4F,6Q4H,6Q4J,6Q4K,6RIJ,6SG4,7ACK,7B5L,7B5R,7B7S,7E34,7KJS,7M2F,7NVQ

> <UniProt (SwissProt) Recommended Name of Target Chain>
Cyclin-dependent kinase 2

> <UniProt (SwissProt) Entry Name of Target Chain>
CDK2_HUMAN

> <UniProt (SwissProt) Primary ID of Target Chain>
P24941

> <UniProt (SwissProt) Secondary ID(s) of Target Chain>
A8K7C6,O75100

> <UniProt (SwissProt) Alternative ID(s) of Target Chain>


> <UniProt (TrEMBL) Submitted Name of Target Chain>


> <UniProt (TrEMBL) Entry Name of Target Chain>


> <UniProt (TrEMBL) Primary ID of Target Chain>
A0A024RB77

> <UniProt (TrEMBL) Secondary ID(s) of Target Chain>


> <UniProt (TrEMBL) Alternative ID(s) of Target Chain>


$$$$
ttt_mol_1

Vconf v2.1
 52 57  0  0  0  0  0  0  0  0999 V2000
   -2.4330   -0.5520    0.4750 C   0  0  0  0  0  0  0  0  0  0  0
   -3.4810   -1.4700    0.2530 C   0  0  0  0  0  0  0  0  0  0  0
   -3.5460   -2.6300    0.9630 N   0  0  0  0  0  0  0  0  0  0  0
   -1.4510   -0.8490    1.4410 C   0  0  0  0  0  0  0  0  0  0  0
   -1.5470   -2.0560    2.1550 C   0  0  0  0  0  0  0  0  0  0  0
   -2.6060   -2.9220    1.8940 C   0  0  0  0  0  0  0  0  0  0  0
   -2.4940   -3.9930    2.6880 N   0  0  0  0  0  0  0  0  0  0  0
   -1.3990   -3.8480    3.4550 C   0  0  0  0  0  0  0  0  0  0  0
   -0.7640   -2.6390    3.1530 C   0  0  0  0  0  0  0  0  0  0  0
    0.4140   -2.1530    3.7520 C   0  0  0  0  0  0  0  0  0  0  0
    0.9630   -0.9730    3.3740 N   0  0  0  0  0  0  0  0  0  0  0
    2.0990   -0.4800    3.9270 C   0  0  0  0  0  0  0  0  0  0  0
    2.7460   -1.2090    4.9390 C   0  0  0  0  0  0  0  0  0  0  0
    2.1710   -2.4270    5.3250 C   0  0  0  0  0  0  0  0  0  0  0
    1.0360   -2.8620    4.7280 N   0  0  0  0  0  0  0  0  0  0  0
    3.8430   -0.7830    5.5050 F   0  0  0  0  0  0  0  0  0  0  0
    2.6220    0.6920    3.5000 N   0  0  0  0  0  0  0  0  0  0  0
    2.0560    1.5000    2.4720 C   0  0  1  0  0  0  0  0  0  0  0
    2.0450    2.9790    2.9170 C   0  0  2  0  0  0  0  0  0  0  0
    1.2520    3.7800    1.8650 C   0  0  0  0  0  0  0  0  0  0  0
    1.8870    3.5990    0.4700 C   0  0  0  0  0  0  0  0  0  0  0
    3.1760    2.7530    0.5720 C   0  0  2  0  0  0  0  0  0  0  0
    2.8870    1.3520    1.1670 C   0  0  2  0  0  0  0  0  0  0  0
   -2.3720    0.5580   -0.2040 F   0  0  0  0  0  0  0  0  0  0  0
    2.2250    0.4520    0.2050 C   0  0  0  0  0  0  0  0  0  0  0
    1.0150    0.6530   -0.3670 O   0  0  0  0  0  0  0  0  0  0  0
    2.7050   -0.7640   -0.2540 C   0  0  0  0  0  0  0  0  0  0  0
    1.7290   -1.2460   -1.1060 C   0  0  0  0  0  0  0  0  0  0  0
    0.7260   -0.3570   -1.1470 N   0  0  0  0  0  0  0  0  0  0  0
    1.7700   -2.4140   -1.7780 O   0  0  0  0  0  0  0  0  0  0  0
    3.4860    3.5310    2.9600 C   0  0  0  0  0  0  0  0  0  0  0
    4.1220    3.4780    1.5530 C   0  0  0  0  0  0  0  0  0  0  0
   -4.1990   -1.2680   -0.4440 H   0  0  0  0  0  0  0  0  0  0  0
   -0.6860   -0.1970    1.6130 H   0  0  0  0  0  0  0  0  0  0  0
   -3.1030   -4.7470    2.7060 H   0  0  0  0  0  0  0  0  0  0  0
   -1.0810   -4.5240    4.1500 H   0  0  0  0  0  0  0  0  0  0  0
    2.6060   -2.9920    6.0550 H   0  0  0  0  0  0  0  0  0  0  0
    3.4570    0.9840    3.8980 H   0  0  0  0  0  0  0  0  0  0  0
    1.0150    1.2180    2.2930 H   0  0  0  0  0  0  0  0  0  0  0
    1.5710    3.0780    3.8940 H   0  0  0  0  0  0  0  0  0  0  0
    0.2190    3.4310    1.8430 H   0  0  0  0  0  0  0  0  0  0  0
    1.2590    4.8370    2.1350 H   0  0  0  0  0  0  0  0  0  0  0
    1.1750    3.1150   -0.1970 H   0  0  0  0  0  0  0  0  0  0  0
    2.1330    4.5780    0.0580 H   0  0  0  0  0  0  0  0  0  0  0
    3.6540    2.6700   -0.4050 H   0  0  0  0  0  0  0  0  0  0  0
    3.8540    0.9110    1.4210 H   0  0  0  0  0  0  0  0  0  0  0
    3.5860   -1.2140   -0.0080 H   0  0  0  0  0  0  0  0  0  0  0
    0.9740   -2.5870   -2.3220 H   0  0  0  0  0  0  0  0  0  0  0
    3.4670    4.5640    3.3090 H   0  0  0  0  0  0  0  0  0  0  0
    4.0820    2.9380    3.6530 H   0  0  0  0  0  0  0  0  0  0  0
    4.3050    4.4920    1.1960 H   0  0  0  0  0  0  0  0  0  0  0
    5.0740    2.9480    1.6030 H   0  0  0  0  0  0  0  0  0  0  0
  1  2  2  0  0  0  0
  1  4  1  0  0  0  0
  1 24  1  0  0  0  0
  2  3  1  0  0  0  0
  2 33  1  0  0  0  0
  3  6  2  0  0  0  0
  4  5  2  0  0  0  0
  4 34  1  0  0  0  0
  5  6  1  0  0  0  0
  5  9  1  0  0  0  0
  6  7  1  0  0  0  0
  7  8  1  0  0  0  0
  7 35  1  0  0  0  0
  8  9  2  0  0  0  0
  8 36  1  0  0  0  0
  9 10  1  0  0  0  0
 10 11  2  0  0  0  0
 10 15  1  0  0  0  0
 11 12  1  0  0  0  0
 12 13  2  0  0  0  0
 12 17  1  0  0  0  0
 13 14  1  0  0  0  0
 13 16  1  0  0  0  0
 14 15  2  0  0  0  0
 14 37  1  0  0  0  0
 18 17  1  1  0  0  0
 17 38  1  0  0  0  0
 18 19  1  0  0  0  0
 18 23  1  0  0  0  0
 18 39  1  0  0  0  0
 19 20  1  0  0  0  0
 19 31  1  0  0  0  0
 19 40  1  0  0  0  0
 20 21  1  0  0  0  0
 20 41  1  0  0  0  0
 20 42  1  0  0  0  0
 21 22  1  0  0  0  0
 21 43  1  0  0  0  0
 21 44  1  0  0  0  0
 22 23  1  0  0  0  0
 22 32  1  0  0  0  0
 22 45  1  0  0  0  0
 23 25  1  6  0  0  0
 23 46  1  0  0  0  0
 25 26  1  0  0  0  0
 25 27  2  0  0  0  0
 26 29  1  0  0  0  0
 27 28  1  0  0  0  0
 27 47  1  0  0  0  0
 28 29  2  0  0  0  0
 28 30  1  0  0  0  0
 30 48  1  0  0  0  0
 31 32  1  0  0  0  0
 31 49  1  0  0  0  0
 31 50  1  0  0  0  0
 32 51  1  0  0  0  0
 32 52  1  0  0  0  0
M  END
> <From>
www.bindingDB.org

> <BindingDB Reactant_set_id>
50304413

> <Ligand InChI>
InChI=1S/C22H20F2N6O2/c23-12-5-13-14(8-26-20(13)25-7-12)21-27-9-15(24)22(29-21)28-19-11-3-1-10(2-4-11)18(19)16-6-17(31)30-32-16/h5-11,18-19H,1-4H2,(H,25,26)(H,30,31)(H,27,28,29)/t10?,11?,18-,19+/m1/s1

> <Ligand InChI Key>
JYDWJFDOWRSYSW-DJZCKWSOSA-N

> <BindingDB MonomerID>
50067518

> <BindingDB Ligand Name>
CHEMBL3401981

> <Target Name Assigned by Curator or DataSource>
Cyclin-dependent kinase 2

> <Target Source Organism According to Curator or DataSource>
Homo sapiens

> <Ki (nM)>
>4000

> <IC50 (nM)>


> <Kd (nM)>


> <EC50 (nM)>


> <kon (M-1-s-1)>


> <koff (s-1)>


> <pH>


> <Temp C>


> <Curation/DataSource>
ChEMBL

> <Article DOI>
10.1016/j.bmcl.2015.03.013

> <PMID>
25827523

> <PubChem AID>


> <Patent Number>


> <Authors>
Boyd, MJ; Bandarage, UK; Bennett, H; Byrn, RR; Davies, I; Gu, W; Jacobs, M; Ledeboer, MW; Ledford, B; Leeman, JR; Perola, E; Wang, T; Bennani, Y; Clark, MP; Charifson, PS

> <Institution>
Vertex Pharmaceuticals Inc

> <Link to Ligand in BindingDB>
http://www.bindingdb.org/bind/chemsearch/marvin/MolStructure.jsp?monomerid=50067518

> <Link to Ligand-Target Pair in BindingDB>
http://www.bindingdb.org/jsp/dbsearch/PrimarySearch_ki.jsp?energyterm=kJ/mole&tag=pol&polymerid=796&target=Cyclin-dependent+kinase+2&column=ki&startPg=0&Increment=50&submit=Search

> <Link to Ligand-Target Pair in BindingDB>
http://www.bindingdb.org/jsp/dbsearch/PrimarySearch_ki.jsp?energyterm=kJ/mole&tag=r21&monomerid=50067518&enzyme=Cyclin-dependent+kinase+2&column=ki&startPg=0&Increment=50&submit=Search

> <Ligand HET ID in PDB>


> <PDB ID(s) for Ligand-Target Complex>


> <PubChem CID>
118728817

> <PubChem SID>
103961957

> <ChEBI ID of Ligand>


> <ChEMBL ID of Ligand>
CHEMBL3401981

> <DrugBank ID of Ligand>


> <IUPHAR_GRAC ID of Ligand>


> <KEGG ID of Ligand>


> <ZINC ID of Ligand>
ZINC00583793

> <Number of Protein Chains in Target (bigger than 1 implies a multichain complex)>
1

> <BindingDB Target Chain Sequence>
MENFQKVEKIGEGTYGVVYKARNKLTGEVVALKKIRLDTETEGVPSTAIREISLLKELNHPNIVKLLDVIHTENKLYLVFEFLHQDLKKFMDASALTGIPLPLIKSYLFQLLQGLAFCHSHRVLHRDLKPQNLLINTEGAIKLADFGLARAFGVPVRTYTHEVVTLWYRAPEILLGCKYYSTAVDIWSLGCIFAEMVTRRALFPGDSEIDQLFRIFRTLGTPDEVVWPGVTSMPDYKPSFPKWARQDFSKVVPPLDEDGRSLLSQMLHYDPNKRISAKAALAHPFFQDVTKPVPHLRL

> <PDB ID(s) of Target Chain>
1CKP,1DI8,1DM2,1E1V,1E1X,1E9H,1F5Q,1FIN,1FQ1,1FVT,1FVV,1G5S,1GIH,1GY3,1GZ8,1H00,1H01,1H07,1H08,1H0V,1H0W,1H1P,1H1Q,1H1R,1H1S,1H24,1H25,1H26,1H27,1H28,1HCK,1HCL,1JST,1JSU,1JSV,1JVP,1KE5,1KE6,1KE7,1KE8,1KE9,1OGU,1OI9,1OIQ,1OIR,1OIU,1OIY,1OKV,1OKW,1OL1,1OL2,1P2A,1P5E,1PF8,1PKD,1PW2,1PXI,1PXJ,1PXK,1PXL,1PXM,1PXN,1PXO,1PXP,1PYE,1QMZ,1R78,1URC,1URW,1V1K,1VYW,1VYZ,1W0X,1W8C,1W98,1WCC,1Y8Y,1Y91,1YKR,2A0C,2A4L,2B52,2B53,2B54,2B55,2BHE,2BHH,2BKZ,2BPM,2BTR,2BTS,2C4G,2C5N,2C5O,2C5V,2C5X,2C5Y,2C68,2C69,2C6I,2C6K,2C6L,2C6M,2C6O,2C6T,2CCH,2CCI,2CJM,2CLX,2DUV,2EXM,2FVD,2G9X,2I40,2J9M,2JGZ,2R3F,2R3G,2R3H,2R3I,2R3J,2R3K,2R3L,2R3M,2R3N,2R3O,2R3P,2R3Q,2R3R,2R64,2UUE,2UZB,2UZD,2UZE,2UZL,2UZN,2UZO,2V0D,2V22,2VTA,2VTH,2VTI,2VTJ,2VTL,2VTM,2VTN,2VTO,2VTP,2VTQ,2VTR,2VTS,2VTT,2VU3,2VV9,2W05,2W06,2W17,2W1H,2WEV,2WFY,2WHB,2WIH,2WIP,2WMA,2WMB,2WPA,2WXV,2X1N,2XMY,2XNB,3BHT,3BHU,3BHV,3DDP,3DDQ,3DOG,3EID,3EJ1,3EOC,3EZR,3EZV,3F5X,3FZ1,3IG7,3IGG,3LE6,3LFN,3LFQ,3LFS,3MY5,3NS9,3PJ8,3PXF,3PXQ,3PXR,3PXY,3PXZ,3PY0,3PY1,3QHR,3QHW,3QL8,3QQF,3QQG,3QQH,3QQJ,3QQK,3QQL,3QRT,3QRU,3QTQ,3QTR,3QTS,3QTU,3QTW,3QTX,3QTZ,3QU0,3QWJ,3QWK,3QX2,3QX4,3QXO,3QXP,3QZF,3QZG,3QZH,3QZI,3R1Q,3R1S,3R1Y,3R28,3R6X,3R71,3R73,3R7E,3R7I,3R7U,3R7V,3R7Y,3R83,3R8L,3R8M,3R8P,3R8U,3R8V,3R8Z,3R9D,3R9H,3R9N,3R9O,3RAH,3RAI,3RAK,3RAL,3RJC,3RK5,3RK7,3RK9,3RKB,3RM6,3RM7,3RMF,3RNI,3ROY,3RPO,3RPR,3RPV,3RPY,3RZB,3S00,3S0O,3S1H,3S2P,3SQQ,3SW4,3SW7,3TI1,3TIY,3TIZ,3TNW,3ULI,3UNJ,3UNK,3WBL,4ACM,4BCK,4BCM,4BCN,4BCO,4BCP,4BCQ,4BGH,4BZD,4CFM,4CFN,4CFU,4CFV,4CFW,4CFX,4D1X,4D1Z,4EK3,4EK4,4EK5,4EK6,4EK8,4EOQ,4EOR,4EOS,4ERW,4EZ3,4EZ7,4FKG,4FKI,4FKJ,4FKL,4FKO,4FKP,4FKQ,4FKR,4FKS,4FKT,4FKU,4FKV,4FKW,4FX3,4GCJ,4I3Z,4II5,4KD1,4LYN,4NJ3,4RJ3,5A14,5AND,5ANE,5ANG,5ANI,5ANJ,5ANK,5ANO,5CYI,5D1J,5FP5,5FP6,5IEV,5IEX,5IEY,5IF1,5JQ5,5JQ8,5K4J,5L2W,5LMK,5MHQ,5NEV,5OO0,5OSJ,5UQ1,5UQ2,5UQ3,6ATH,6GUB,6GUC,6GUE,6GUF,6GUH,6GUK,6GVA,6INL,6JGM,6OQI,6P3W,6Q3B,6Q3C,6Q3F,6Q48,6Q49,6Q4A,6Q4B,6Q4C,6Q4D,6Q4E,6Q4F,6Q4H,6Q4J,6Q4K,6RIJ,6SG4,7ACK,7B5L,7B5R,7B7S,7E34,7KJS,7M2F,7NVQ

> <UniProt (SwissProt) Recommended Name of Target Chain>
Cyclin-dependent kinase 2

> <UniProt (SwissProt) Entry Name of Target Chain>
CDK2_HUMAN

> <UniProt (SwissProt) Primary ID of Target Chain>
P24941

> <UniProt (SwissProt) Secondary ID(s) of Target Chain>
A8K7C6,O75100

> <UniProt (SwissProt) Alternative ID(s) of Target Chain>


> <UniProt (TrEMBL) Submitted Name of Target Chain>


> <UniProt (TrEMBL) Entry Name of Target Chain>


> <UniProt (TrEMBL) Primary ID of Target Chain>
A0A024RB77

> <UniProt (TrEMBL) Secondary ID(s) of Target Chain>


> <UniProt (TrEMBL) Alternative ID(s) of Target Chain>


$$$$
BindingDB_50387330_mol_1

Vconf v2.0 Academic SN VC001-00000579
 53 55  0  0  0  0  0  0  0  0999 V2000
    2.6200  -13.8480    0.9440 N   0  0  0  0  0  0  0  0  0  0  0
    2.4510  -15.0320    1.5780 C   0  0  0  0  0  0  0  0  0  0  0
    3.5490  -15.8830    1.7430 C   0  0  0  0  0  0  0  0  0  0  0
    4.7970  -15.4810    1.2440 C   0  0  0  0  0  0  0  0  0  0  0
    4.9710  -14.2380    0.5850 C   0  0  0  0  0  0  0  0  0  0  0
    3.8120  -13.4300    0.4530 C   0  0  0  0  0  0  0  0  0  0  0
    3.8070  -12.2290   -0.1470 N   0  0  0  0  0  0  0  0  0  0  0
    6.2450  -13.8330    0.0820 C   0  0  0  0  0  0  0  0  0  0  0
    7.4220  -14.5960    0.2380 C   0  0  0  0  0  0  0  0  0  0  0
    6.3800  -12.7370   -0.5100 O   0  0  0  0  0  0  0  0  0  0  0
    7.8500  -14.7930    1.5110 N   0  0  0  0  0  0  0  0  0  0  0
    8.9380  -15.5120    1.8820 C   0  0  0  0  0  0  0  0  0  0  0
    9.6910  -16.0970    0.8450 C   0  0  0  0  0  0  0  0  0  0  0
    9.2920  -15.9260   -0.4890 C   0  0  0  0  0  0  0  0  0  0  0
    8.1460  -15.1750   -0.8350 C   0  0  0  0  0  0  0  0  0  0  0
    9.2190  -15.6380    3.2230 N   0  0  0  0  0  0  0  0  0  0  0
   10.2980  -16.4080    3.7690 C   0  0  0  0  0  0  0  0  0  0  0
    9.7260  -17.4920    4.6970 C   0  0  0  0  0  0  0  0  0  0  0
    8.8820  -16.8920    5.7420 N   0  0  0  0  0  0  0  0  0  0  0
    7.7990  -16.1070    5.1280 C   0  0  2  0  0  0  0  0  0  0  0
    8.3990  -15.0170    4.2220 C   0  0  0  0  0  0  0  0  0  0  0
    6.9330  -15.4590    6.2230 C   0  0  0  0  0  0  0  0  0  0  0
    6.3240  -16.4870    7.1980 C   0  0  0  0  0  0  0  0  0  0  0
    5.5600  -15.7470    8.3070 C   0  0  0  0  0  0  0  0  0  0  0
    5.3690  -17.4550    6.4780 C   0  0  0  0  0  0  0  0  0  0  0
    7.7290  -15.0250   -2.2600 C   0  0  0  0  0  0  0  0  0  0  0
    8.4870  -15.7540   -3.1490 F   0  0  0  0  0  0  0  0  0  0  0
    6.4330  -15.4490   -2.4340 F   0  0  0  0  0  0  0  0  0  0  0
    7.8320  -13.7150   -2.6580 F   0  0  0  0  0  0  0  0  0  0  0
    1.5320  -15.3000    1.9310 H   0  0  0  0  0  0  0  0  0  0  0
    3.4440  -16.7810    2.2170 H   0  0  0  0  0  0  0  0  0  0  0
    5.5850  -16.1170    1.3700 H   0  0  0  0  0  0  0  0  0  0  0
    4.6250  -11.8670   -0.5220 H   0  0  0  0  0  0  0  0  0  0  0
    2.9820  -11.7240   -0.2040 H   0  0  0  0  0  0  0  0  0  0  0
   10.5230  -16.6490    1.0380 H   0  0  0  0  0  0  0  0  0  0  0
    9.8540  -16.3640   -1.2190 H   0  0  0  0  0  0  0  0  0  0  0
   10.9430  -15.7490    4.3520 H   0  0  0  0  0  0  0  0  0  0  0
   10.9130  -16.8980    3.0190 H   0  0  0  0  0  0  0  0  0  0  0
   10.5490  -18.0270    5.1710 H   0  0  0  0  0  0  0  0  0  0  0
    9.1360  -18.1990    4.1110 H   0  0  0  0  0  0  0  0  0  0  0
    9.4690  -16.2330    6.2570 H   0  0  0  0  0  0  0  0  0  0  0
    7.1740  -16.7590    4.5170 H   0  0  0  0  0  0  0  0  0  0  0
    9.0180  -14.3490    4.8230 H   0  0  0  0  0  0  0  0  0  0  0
    7.5810  -14.4290    3.8030 H   0  0  0  0  0  0  0  0  0  0  0
    7.5530  -14.7640    6.7910 H   0  0  0  0  0  0  0  0  0  0  0
    6.1260  -14.8970    5.7500 H   0  0  0  0  0  0  0  0  0  0  0
    7.1260  -17.0640    7.6600 H   0  0  0  0  0  0  0  0  0  0  0
    5.1490  -16.4680    9.0140 H   0  0  0  0  0  0  0  0  0  0  0
    6.2390  -15.0780    8.8370 H   0  0  0  0  0  0  0  0  0  0  0
    4.7460  -15.1650    7.8730 H   0  0  0  0  0  0  0  0  0  0  0
    4.8840  -18.1020    7.2090 H   0  0  0  0  0  0  0  0  0  0  0
    4.6090  -16.8930    5.9350 H   0  0  0  0  0  0  0  0  0  0  0
    5.9280  -18.0770    5.7790 H   0  0  0  0  0  0  0  0  0  0  0
  1  2  1  0  0  0  0
  1  6  2  0  0  0  0
  2  3  2  0  0  0  0
  2 30  1  0  0  0  0
  3  4  1  0  0  0  0
  3 31  1  0  0  0  0
  4  5  2  0  0  0  0
  4 32  1  0  0  0  0
  5  6  1  0  0  0  0
  5  8  1  0  0  0  0
  6  7  1  0  0  0  0
  7 33  1  0  0  0  0
  7 34  1  0  0  0  0
  8  9  1  0  0  0  0
  8 10  2  0  0  0  0
  9 11  1  0  0  0  0
  9 15  2  0  0  0  0
 11 12  2  0  0  0  0
 12 13  1  0  0  0  0
 12 16  1  0  0  0  0
 13 14  2  0  0  0  0
 13 35  1  0  0  0  0
 14 15  1  0  0  0  0
 14 36  1  0  0  0  0
 15 26  1  0  0  0  0
 16 17  1  0  0  0  0
 16 21  1  0  0  0  0
 17 18  1  0  0  0  0
 17 37  1  0  0  0  0
 17 38  1  0  0  0  0
 18 19  1  0  0  0  0
 18 39  1  0  0  0  0
 18 40  1  0  0  0  0
 19 20  1  0  0  0  0
 19 41  1  0  0  0  0
 20 21  1  0  0  0  0
 20 22  1  6  0  0  0
 20 42  1  0  0  0  0
 21 43  1  0  0  0  0
 21 44  1  0  0  0  0
 22 23  1  0  0  0  0
 22 45  1  0  0  0  0
 22 46  1  0  0  0  0
 23 24  1  0  0  0  0
 23 25  1  0  0  0  0
 23 47  1  0  0  0  0
 24 48  1  0  0  0  0
 24 49  1  0  0  0  0
 24 50  1  0  0  0  0
 25 51  1  0  0  0  0
 25 52  1  0  0  0  0
 25 53  1  0  0  0  0
 26 27  1  0  0  0  0
 26 28  1  0  0  0  0
 26 29  1  0  0  0  0
M  END
> <From>
www.bindingDB.org

> <BindingDB Reactant_set_id>
50944563

> <Ligand InChI>
InChI=1S/C20H24F3N5O/c1-12(2)10-13-11-28(9-8-25-13)16-6-5-15(20(21,22)23)17(27-16)18(29)14-4-3-7-26-19(14)24/h3-7,12-13,25H,8-11H2,1-2H3,(H2,24,26)/t13-/m0/s1

> <Ligand InChI Key>
XWKJUHBICAMYNW-ZDUSSCGKSA-N

> <BindingDB MonomerID>
50387330

> <BindingDB Ligand Name>
CHEMBL2046643

> <Target Name Assigned by Curator or DataSource>
Cyclin-dependent kinase 2

> <Target Source Organism According to Curator or DataSource>
Homo sapiens

> <Ki (nM)>
>4000

> <IC50 (nM)>


> <Kd (nM)>


> <EC50 (nM)>


> <kon (M-1-s-1)>


> <koff (s-1)>


> <pH>


> <Temp C>


> <Curation/DataSource>
ChEMBL

> <Article DOI>
10.1016/j.bmcl.2012.05.114

> <PMID>
22738630

> <PubChem AID>


> <Patent Number>


> <Authors>
Jimenez, JM; Davis, C; Boyall, D; Fraysse, D; Knegtel, R; Settimo, L; Young, S; Bolton, C; Chiu, P; Curnock, A; Rasmussen, R; Tanner, A; Ager, I

> <Institution>
Vertex Pharmaceuticals Inc

> <Link to Ligand in BindingDB>
http://www.bindingdb.org/bind/chemsearch/marvin/MolStructure.jsp?monomerid=50387330

> <Link to Ligand-Target Pair in BindingDB>
http://www.bindingdb.org/jsp/dbsearch/PrimarySearch_ki.jsp?energyterm=kJ/mole&tag=pol&polymerid=796&target=Cyclin-dependent+kinase+2&column=ki&startPg=0&Increment=50&submit=Search

> <Link to Ligand-Target Pair in BindingDB>
http://www.bindingdb.org/jsp/dbsearch/PrimarySearch_ki.jsp?energyterm=kJ/mole&tag=r21&monomerid=50387330&enzyme=Cyclin-dependent+kinase+2&column=ki&startPg=0&Increment=50&submit=Search

> <Ligand HET ID in PDB>


> <PDB ID(s) for Ligand-Target Complex>


> <PubChem CID>
24995659

> <PubChem SID>
160866413

> <ChEBI ID of Ligand>


> <ChEMBL ID of Ligand>
CHEMBL2046643

> <DrugBank ID of Ligand>


> <IUPHAR_GRAC ID of Ligand>


> <KEGG ID of Ligand>


> <ZINC ID of Ligand>
ZINC84758312

> <Number of Protein Chains in Target (bigger than 1 implies a multichain complex)>
1

> <BindingDB Target Chain Sequence>
MENFQKVEKIGEGTYGVVYKARNKLTGEVVALKKIRLDTETEGVPSTAIREISLLKELNHPNIVKLLDVIHTENKLYLVFEFLHQDLKKFMDASALTGIPLPLIKSYLFQLLQGLAFCHSHRVLHRDLKPQNLLINTEGAIKLADFGLARAFGVPVRTYTHEVVTLWYRAPEILLGCKYYSTAVDIWSLGCIFAEMVTRRALFPGDSEIDQLFRIFRTLGTPDEVVWPGVTSMPDYKPSFPKWARQDFSKVVPPLDEDGRSLLSQMLHYDPNKRISAKAALAHPFFQDVTKPVPHLRL

> <PDB ID(s) of Target Chain>
1CKP,1DI8,1DM2,1E1V,1E1X,1E9H,1F5Q,1FIN,1FQ1,1FVT,1FVV,1G5S,1GIH,1GY3,1GZ8,1H00,1H01,1H07,1H08,1H0V,1H0W,1H1P,1H1Q,1H1R,1H1S,1H24,1H25,1H26,1H27,1H28,1HCK,1HCL,1JST,1JSU,1JSV,1JVP,1KE5,1KE6,1KE7,1KE8,1KE9,1OGU,1OI9,1OIQ,1OIR,1OIU,1OIY,1OKV,1OKW,1OL1,1OL2,1P2A,1P5E,1PF8,1PKD,1PW2,1PXI,1PXJ,1PXK,1PXL,1PXM,1PXN,1PXO,1PXP,1PYE,1QMZ,1R78,1URC,1URW,1V1K,1VYW,1VYZ,1W0X,1W8C,1W98,1WCC,1Y8Y,1Y91,1YKR,2A0C,2A4L,2B52,2B53,2B54,2B55,2BHE,2BHH,2BKZ,2BPM,2BTR,2BTS,2C4G,2C5N,2C5O,2C5V,2C5X,2C5Y,2C68,2C69,2C6I,2C6K,2C6L,2C6M,2C6O,2C6T,2CCH,2CCI,2CJM,2CLX,2DUV,2EXM,2FVD,2G9X,2I40,2J9M,2JGZ,2R3F,2R3G,2R3H,2R3I,2R3J,2R3K,2R3L,2R3M,2R3N,2R3O,2R3P,2R3Q,2R3R,2R64,2UUE,2UZB,2UZD,2UZE,2UZL,2UZN,2UZO,2V0D,2V22,2VTA,2VTH,2VTI,2VTJ,2VTL,2VTM,2VTN,2VTO,2VTP,2VTQ,2VTR,2VTS,2VTT,2VU3,2VV9,2W05,2W06,2W17,2W1H,2WEV,2WFY,2WHB,2WIH,2WIP,2WMA,2WMB,2WPA,2WXV,2X1N,2XMY,2XNB,3BHT,3BHU,3BHV,3DDP,3DDQ,3DOG,3EID,3EJ1,3EOC,3EZR,3EZV,3F5X,3FZ1,3IG7,3IGG,3LE6,3LFN,3LFQ,3LFS,3MY5,3NS9,3PJ8,3PXF,3PXQ,3PXR,3PXY,3PXZ,3PY0,3PY1,3QHR,3QHW,3QL8,3QQF,3QQG,3QQH,3QQJ,3QQK,3QQL,3QRT,3QRU,3QTQ,3QTR,3QTS,3QTU,3QTW,3QTX,3QTZ,3QU0,3QWJ,3QWK,3QX2,3QX4,3QXO,3QXP,3QZF,3QZG,3QZH,3QZI,3R1Q,3R1S,3R1Y,3R28,3R6X,3R71,3R73,3R7E,3R7I,3R7U,3R7V,3R7Y,3R83,3R8L,3R8M,3R8P,3R8U,3R8V,3R8Z,3R9D,3R9H,3R9N,3R9O,3RAH,3RAI,3RAK,3RAL,3RJC,3RK5,3RK7,3RK9,3RKB,3RM6,3RM7,3RMF,3RNI,3ROY,3RPO,3RPR,3RPV,3RPY,3RZB,3S00,3S0O,3S1H,3S2P,3SQQ,3SW4,3SW7,3TI1,3TIY,3TIZ,3TNW,3ULI,3UNJ,3UNK,3WBL,4ACM,4BCK,4BCM,4BCN,4BCO,4BCP,4BCQ,4BGH,4BZD,4CFM,4CFN,4CFU,4CFV,4CFW,4CFX,4D1X,4D1Z,4EK3,4EK4,4EK5,4EK6,4EK8,4EOQ,4EOR,4EOS,4ERW,4EZ3,4EZ7,4FKG,4FKI,4FKJ,4FKL,4FKO,4FKP,4FKQ,4FKR,4FKS,4FKT,4FKU,4FKV,4FKW,4FX3,4GCJ,4I3Z,4II5,4KD1,4LYN,4NJ3,4RJ3,5A14,5AND,5ANE,5ANG,5ANI,5ANJ,5ANK,5ANO,5CYI,5D1J,5FP5,5FP6,5IEV,5IEX,5IEY,5IF1,5JQ5,5JQ8,5K4J,5L2W,5LMK,5MHQ,5NEV,5OO0,5OSJ,5UQ1,5UQ2,5UQ3,6ATH,6GUB,6GUC,6GUE,6GUF,6GUH,6GUK,6GVA,6INL,6JGM,6OQI,6P3W,6Q3B,6Q3C,6Q3F,6Q48,6Q49,6Q4A,6Q4B,6Q4C,6Q4D,6Q4E,6Q4F,6Q4H,6Q4J,6Q4K,6RIJ,6SG4,7ACK,7B5L,7B5R,7B7S,7E34,7KJS,7M2F,7NVQ

> <UniProt (SwissProt) Recommended Name of Target Chain>
Cyclin-dependent kinase 2

> <UniProt (SwissProt) Entry Name of Target Chain>
CDK2_HUMAN

> <UniProt (SwissProt) Primary ID of Target Chain>
P24941

> <UniProt (SwissProt) Secondary ID(s) of Target Chain>
A8K7C6,O75100

> <UniProt (SwissProt) Alternative ID(s) of Target Chain>


> <UniProt (TrEMBL) Submitted Name of Target Chain>


> <UniProt (TrEMBL) Entry Name of Target Chain>


> <UniProt (TrEMBL) Primary ID of Target Chain>
A0A024RB77

> <UniProt (TrEMBL) Secondary ID(s) of Target Chain>


> <UniProt (TrEMBL) Alternative ID(s) of Target Chain>


$$$$
BindingDB_50249416_mol_1

Vconf v2.0 Academic SN VC001-00000579
 34 36  0  0  0  0  0  0  0  0999 V2000
    6.8290   -7.4310    3.2620 C   0  0  0  0  0  0  0  0  0  0  0
    7.0430   -8.0560    1.9470 C   0  0  0  0  0  0  0  0  0  0  0
    7.5020   -9.3840    1.8750 C   0  0  0  0  0  0  0  0  0  0  0
    7.7030  -10.0100    0.6330 C   0  0  0  0  0  0  0  0  0  0  0
    8.1610  -11.2890    0.6340 N   0  0  0  0  0  0  0  0  0  0  0
    7.7520  -12.2900   -0.1820 C   0  0  0  0  0  0  0  0  0  0  0
    8.3140  -13.5110   -0.0260 N   0  0  0  0  0  0  0  0  0  0  0
    7.9570  -14.5670   -0.7940 C   0  0  0  0  0  0  0  0  0  0  0
    6.9770  -14.4160   -1.7840 C   0  0  0  0  0  0  0  0  0  0  0
    6.3940  -13.1460   -1.9410 C   0  0  0  0  0  0  0  0  0  0  0
    6.7990  -12.1320   -1.1360 N   0  0  0  0  0  0  0  0  0  0  0
    5.4050  -12.8830   -2.9020 C   0  0  0  0  0  0  0  0  0  0  0
    4.9270  -13.8080   -3.7550 N   0  0  0  0  0  0  0  0  0  0  0
    3.9940  -13.3080   -4.5740 C   0  0  0  0  0  0  0  0  0  0  0
    3.7460  -11.9640   -4.3460 C   0  0  0  0  0  0  0  0  0  0  0
    4.7070  -11.3030   -3.0700 S   0  0  0  0  0  0  0  0  0  0  0
    7.4670   -9.2760   -0.5480 C   0  0  0  0  0  0  0  0  0  0  0
    7.0050   -7.9420   -0.5080 C   0  0  0  0  0  0  0  0  0  0  0
    6.7960   -7.3460    0.7560 C   0  0  0  0  0  0  0  0  0  0  0
    6.7590   -7.2160   -1.7820 C   0  0  0  0  0  0  0  0  0  0  0
    6.3080   -5.9260   -1.6160 F   0  0  0  0  0  0  0  0  0  0  0
    7.9180   -7.1440   -2.5160 F   0  0  0  0  0  0  0  0  0  0  0
    5.8130   -7.8770   -2.5280 F   0  0  0  0  0  0  0  0  0  0  0
    6.4720   -6.4050    3.1590 H   0  0  0  0  0  0  0  0  0  0  0
    6.0890   -8.0040    3.8220 H   0  0  0  0  0  0  0  0  0  0  0
    7.7670   -7.4210    3.8180 H   0  0  0  0  0  0  0  0  0  0  0
    7.6830   -9.9000    2.7370 H   0  0  0  0  0  0  0  0  0  0  0
    8.8080  -11.5250    1.3170 H   0  0  0  0  0  0  0  0  0  0  0
    8.4010  -15.4740   -0.6500 H   0  0  0  0  0  0  0  0  0  0  0
    6.7030  -15.2070   -2.3670 H   0  0  0  0  0  0  0  0  0  0  0
    3.5170  -13.8580   -5.2890 H   0  0  0  0  0  0  0  0  0  0  0
    3.0660  -11.4200   -4.8770 H   0  0  0  0  0  0  0  0  0  0  0
    7.6360   -9.7140   -1.4540 H   0  0  0  0  0  0  0  0  0  0  0
    6.4630   -6.3830    0.8140 H   0  0  0  0  0  0  0  0  0  0  0
  1  2  1  0  0  0  0
  1 24  1  0  0  0  0
  1 25  1  0  0  0  0
  1 26  1  0  0  0  0
  2  3  2  0  0  0  0
  2 19  1  0  0  0  0
  3  4  1  0  0  0  0
  3 27  1  0  0  0  0
  4  5  1  0  0  0  0
  4 17  2  0  0  0  0
  5  6  1  0  0  0  0
  5 28  1  0  0  0  0
  6  7  2  0  0  0  0
  6 11  1  0  0  0  0
  7  8  1  0  0  0  0
  8  9  2  0  0  0  0
  8 29  1  0  0  0  0
  9 10  1  0  0  0  0
  9 30  1  0  0  0  0
 10 11  2  0  0  0  0
 10 12  1  0  0  0  0
 12 13  2  0  0  0  0
 12 16  1  0  0  0  0
 13 14  1  0  0  0  0
 14 15  2  0  0  0  0
 14 31  1  0  0  0  0
 15 16  1  0  0  0  0
 15 32  1  0  0  0  0
 17 18  1  0  0  0  0
 17 33  1  0  0  0  0
 18 19  2  0  0  0  0
 18 20  1  0  0  0  0
 19 34  1  0  0  0  0
 20 21  1  0  0  0  0
 20 22  1  0  0  0  0
 20 23  1  0  0  0  0
M  END
> <From>
www.bindingDB.org

> <BindingDB Reactant_set_id>
50436581

> <Ligand InChI>
InChI=1S/C15H11F3N4S/c1-9-6-10(15(16,17)18)8-11(7-9)21-14-20-3-2-12(22-14)13-19-4-5-23-13/h2-8H,1H3,(H,20,21,22)

> <Ligand InChI Key>
LZZSVMHMGFYOIP-UHFFFAOYSA-N

> <BindingDB MonomerID>
50249416

> <BindingDB Ligand Name>
CHEMBL471776::N-(3-methyl-5-(trifluoromethyl)phenyl)-4-(thiazol-2-yl)pyrimidin-2-amine

> <Target Name Assigned by Curator or DataSource>
Cyclin-dependent kinase 2

> <Target Source Organism According to Curator or DataSource>
Homo sapiens

> <Ki (nM)>
>5000

> <IC50 (nM)>


> <Kd (nM)>


> <EC50 (nM)>


> <kon (M-1-s-1)>


> <koff (s-1)>


> <pH>


> <Temp C>


> <Curation/DataSource>
ChEMBL

> <Article DOI>
10.1016/j.bmcl.2008.09.106

> <PMID>
18938080

> <PubChem AID>


> <Patent Number>


> <Authors>
Farmer, LJ; Bemis, G; Britt, SD; Cochran, J; Connors, M; Harrington, EM; Hoock, T; Markland, W; Nanthakumar, S; Taslimi, P; Ter Haar, E; Wang, J; Zhaveri, D; Salituro, FG

> <Institution>
Vertex Pharmaceuticals Inc

> <Link to Ligand in BindingDB>
http://www.bindingdb.org/bind/chemsearch/marvin/MolStructure.jsp?monomerid=50249416

> <Link to Ligand-Target Pair in BindingDB>
http://www.bindingdb.org/jsp/dbsearch/PrimarySearch_ki.jsp?energyterm=kJ/mole&tag=pol&polymerid=796&target=Cyclin-dependent+kinase+2&column=ki&startPg=0&Increment=50&submit=Search

> <Link to Ligand-Target Pair in BindingDB>
http://www.bindingdb.org/jsp/dbsearch/PrimarySearch_ki.jsp?energyterm=kJ/mole&tag=r21&monomerid=50249416&enzyme=Cyclin-dependent+kinase+2&column=ki&startPg=0&Increment=50&submit=Search

> <Ligand HET ID in PDB>


> <PDB ID(s) for Ligand-Target Complex>


> <PubChem CID>
44593472

> <PubChem SID>
104103727

> <ChEBI ID of Ligand>


> <ChEMBL ID of Ligand>
CHEMBL471776

> <DrugBank ID of Ligand>


> <IUPHAR_GRAC ID of Ligand>


> <KEGG ID of Ligand>


> <ZINC ID of Ligand>
ZINC40394261

> <Number of Protein Chains in Target (bigger than 1 implies a multichain complex)>
1

> <BindingDB Target Chain Sequence>
MENFQKVEKIGEGTYGVVYKARNKLTGEVVALKKIRLDTETEGVPSTAIREISLLKELNHPNIVKLLDVIHTENKLYLVFEFLHQDLKKFMDASALTGIPLPLIKSYLFQLLQGLAFCHSHRVLHRDLKPQNLLINTEGAIKLADFGLARAFGVPVRTYTHEVVTLWYRAPEILLGCKYYSTAVDIWSLGCIFAEMVTRRALFPGDSEIDQLFRIFRTLGTPDEVVWPGVTSMPDYKPSFPKWARQDFSKVVPPLDEDGRSLLSQMLHYDPNKRISAKAALAHPFFQDVTKPVPHLRL

> <PDB ID(s) of Target Chain>
1CKP,1DI8,1DM2,1E1V,1E1X,1E9H,1F5Q,1FIN,1FQ1,1FVT,1FVV,1G5S,1GIH,1GY3,1GZ8,1H00,1H01,1H07,1H08,1H0V,1H0W,1H1P,1H1Q,1H1R,1H1S,1H24,1H25,1H26,1H27,1H28,1HCK,1HCL,1JST,1JSU,1JSV,1JVP,1KE5,1KE6,1KE7,1KE8,1KE9,1OGU,1OI9,1OIQ,1OIR,1OIU,1OIY,1OKV,1OKW,1OL1,1OL2,1P2A,1P5E,1PF8,1PKD,1PW2,1PXI,1PXJ,1PXK,1PXL,1PXM,1PXN,1PXO,1PXP,1PYE,1QMZ,1R78,1URC,1URW,1V1K,1VYW,1VYZ,1W0X,1W8C,1W98,1WCC,1Y8Y,1Y91,1YKR,2A0C,2A4L,2B52,2B53,2B54,2B55,2BHE,2BHH,2BKZ,2BPM,2BTR,2BTS,2C4G,2C5N,2C5O,2C5V,2C5X,2C5Y,2C68,2C69,2C6I,2C6K,2C6L,2C6M,2C6O,2C6T,2CCH,2CCI,2CJM,2CLX,2DUV,2EXM,2FVD,2G9X,2I40,2J9M,2JGZ,2R3F,2R3G,2R3H,2R3I,2R3J,2R3K,2R3L,2R3M,2R3N,2R3O,2R3P,2R3Q,2R3R,2R64,2UUE,2UZB,2UZD,2UZE,2UZL,2UZN,2UZO,2V0D,2V22,2VTA,2VTH,2VTI,2VTJ,2VTL,2VTM,2VTN,2VTO,2VTP,2VTQ,2VTR,2VTS,2VTT,2VU3,2VV9,2W05,2W06,2W17,2W1H,2WEV,2WFY,2WHB,2WIH,2WIP,2WMA,2WMB,2WPA,2WXV,2X1N,2XMY,2XNB,3BHT,3BHU,3BHV,3DDP,3DDQ,3DOG,3EID,3EJ1,3EOC,3EZR,3EZV,3F5X,3FZ1,3IG7,3IGG,3LE6,3LFN,3LFQ,3LFS,3MY5,3NS9,3PJ8,3PXF,3PXQ,3PXR,3PXY,3PXZ,3PY0,3PY1,3QHR,3QHW,3QL8,3QQF,3QQG,3QQH,3QQJ,3QQK,3QQL,3QRT,3QRU,3QTQ,3QTR,3QTS,3QTU,3QTW,3QTX,3QTZ,3QU0,3QWJ,3QWK,3QX2,3QX4,3QXO,3QXP,3QZF,3QZG,3QZH,3QZI,3R1Q,3R1S,3R1Y,3R28,3R6X,3R71,3R73,3R7E,3R7I,3R7U,3R7V,3R7Y,3R83,3R8L,3R8M,3R8P,3R8U,3R8V,3R8Z,3R9D,3R9H,3R9N,3R9O,3RAH,3RAI,3RAK,3RAL,3RJC,3RK5,3RK7,3RK9,3RKB,3RM6,3RM7,3RMF,3RNI,3ROY,3RPO,3RPR,3RPV,3RPY,3RZB,3S00,3S0O,3S1H,3S2P,3SQQ,3SW4,3SW7,3TI1,3TIY,3TIZ,3TNW,3ULI,3UNJ,3UNK,3WBL,4ACM,4BCK,4BCM,4BCN,4BCO,4BCP,4BCQ,4BGH,4BZD,4CFM,4CFN,4CFU,4CFV,4CFW,4CFX,4D1X,4D1Z,4EK3,4EK4,4EK5,4EK6,4EK8,4EOQ,4EOR,4EOS,4ERW,4EZ3,4EZ7,4FKG,4FKI,4FKJ,4FKL,4FKO,4FKP,4FKQ,4FKR,4FKS,4FKT,4FKU,4FKV,4FKW,4FX3,4GCJ,4I3Z,4II5,4KD1,4LYN,4NJ3,4RJ3,5A14,5AND,5ANE,5ANG,5ANI,5ANJ,5ANK,5ANO,5CYI,5D1J,5FP5,5FP6,5IEV,5IEX,5IEY,5IF1,5JQ5,5JQ8,5K4J,5L2W,5LMK,5MHQ,5NEV,5OO0,5OSJ,5UQ1,5UQ2,5UQ3,6ATH,6GUB,6GUC,6GUE,6GUF,6GUH,6GUK,6GVA,6INL,6JGM,6OQI,6P3W,6Q3B,6Q3C,6Q3F,6Q48,6Q49,6Q4A,6Q4B,6Q4C,6Q4D,6Q4E,6Q4F,6Q4H,6Q4J,6Q4K,6RIJ,6SG4,7ACK,7B5L,7B5R,7B7S,7E34,7KJS,7M2F,7NVQ

> <UniProt (SwissProt) Recommended Name of Target Chain>
Cyclin-dependent kinase 2

> <UniProt (SwissProt) Entry Name of Target Chain>
CDK2_HUMAN

> <UniProt (SwissProt) Primary ID of Target Chain>
P24941

> <UniProt (SwissProt) Secondary ID(s) of Target Chain>
A8K7C6,O75100

> <UniProt (SwissProt) Alternative ID(s) of Target Chain>


> <UniProt (TrEMBL) Submitted Name of Target Chain>


> <UniProt (TrEMBL) Entry Name of Target Chain>


> <UniProt (TrEMBL) Primary ID of Target Chain>
A0A024RB77

> <UniProt (TrEMBL) Secondary ID(s) of Target Chain>


> <UniProt (TrEMBL) Alternative ID(s) of Target Chain>


$$$$
BindingDB_50276018_mol_1

Vconf v2.0 Academic SN VC001-00000579
 36 38  0  0  0  0  0  0  0  0999 V2000
    4.7630  -19.6820    0.3730 C   0  0  0  0  0  0  0  0  0  0  0
    4.5300  -20.8160    1.1740 C   0  0  0  0  0  0  0  0  0  0  0
    5.6100  -21.3710    1.8940 C   0  0  0  0  0  0  0  0  0  0  0
    6.8910  -20.7940    1.8390 C   0  0  0  0  0  0  0  0  0  0  0
    7.0960  -19.6510    1.0410 C   0  0  0  0  0  0  0  0  0  0  0
    6.0360  -19.0900    0.3000 C   0  0  0  0  0  0  0  0  0  0  0
    3.2740  -21.3380    1.1530 N   0  0  0  0  0  0  0  0  0  0  0
    2.6320  -22.0020    2.1440 C   0  0  0  0  0  0  0  0  0  0  0
    1.3720  -22.4300    1.8970 N   0  0  0  0  0  0  0  0  0  0  0
    0.6440  -23.0960    2.8240 C   0  0  0  0  0  0  0  0  0  0  0
    1.1920  -23.3620    4.0860 C   0  0  0  0  0  0  0  0  0  0  0
    2.5010  -22.9150    4.3390 C   0  0  0  0  0  0  0  0  0  0  0
    3.1700  -22.2500    3.3650 N   0  0  0  0  0  0  0  0  0  0  0
    3.1500  -23.1390    5.5640 C   0  0  0  0  0  0  0  0  0  0  0
    4.7700  -22.5840    5.8410 S   0  0  0  0  0  0  0  0  0  0  0
    4.6430  -23.2840    7.4170 C   0  0  0  0  0  0  0  0  0  0  0
    3.4140  -23.8820    7.6480 C   0  0  0  0  0  0  0  0  0  0  0
    2.5890  -23.7930    6.5990 N   0  0  0  0  0  0  0  0  0  0  0
    6.1670  -17.9940   -0.5050 O   0  0  0  0  0  0  0  0  0  0  0
    7.4110  -17.3110   -0.6780 C   0  0  0  0  0  0  0  0  0  0  0
    7.8750  -21.3960    2.5700 O   0  0  0  0  0  0  0  0  0  0  0
    9.2370  -20.9640    2.5320 C   0  0  0  0  0  0  0  0  0  0  0
    3.9970  -19.2800   -0.1690 H   0  0  0  0  0  0  0  0  0  0  0
    5.4740  -22.2100    2.4570 H   0  0  0  0  0  0  0  0  0  0  0
    8.0220  -19.2290    0.9930 H   0  0  0  0  0  0  0  0  0  0  0
    2.7590  -21.1870    0.3450 H   0  0  0  0  0  0  0  0  0  0  0
   -0.3010  -23.4060    2.6020 H   0  0  0  0  0  0  0  0  0  0  0
    0.6500  -23.8640    4.7910 H   0  0  0  0  0  0  0  0  0  0  0
    5.3950  -23.2580    8.1050 H   0  0  0  0  0  0  0  0  0  0  0
    3.1660  -24.3430    8.5240 H   0  0  0  0  0  0  0  0  0  0  0
    7.2650  -16.4840   -1.3720 H   0  0  0  0  0  0  0  0  0  0  0
    7.7610  -16.9140    0.2760 H   0  0  0  0  0  0  0  0  0  0  0
    8.1610  -17.9890   -1.0910 H   0  0  0  0  0  0  0  0  0  0  0
    9.8250  -21.6000    3.1940 H   0  0  0  0  0  0  0  0  0  0  0
    9.6310  -21.0490    1.5180 H   0  0  0  0  0  0  0  0  0  0  0
    9.3180  -19.9310    2.8730 H   0  0  0  0  0  0  0  0  0  0  0
  1  2  1  0  0  0  0
  1  6  2  0  0  0  0
  1 23  1  0  0  0  0
  2  3  2  0  0  0  0
  2  7  1  0  0  0  0
  3  4  1  0  0  0  0
  3 24  1  0  0  0  0
  4  5  2  0  0  0  0
  4 21  1  0  0  0  0
  5  6  1  0  0  0  0
  5 25  1  0  0  0  0
  6 19  1  0  0  0  0
  7  8  1  0  0  0  0
  7 26  1  0  0  0  0
  8  9  1  0  0  0  0
  8 13  2  0  0  0  0
  9 10  2  0  0  0  0
 10 11  1  0  0  0  0
 10 27  1  0  0  0  0
 11 12  2  0  0  0  0
 11 28  1  0  0  0  0
 12 13  1  0  0  0  0
 12 14  1  0  0  0  0
 14 15  1  0  0  0  0
 14 18  2  0  0  0  0
 15 16  1  0  0  0  0
 16 17  2  0  0  0  0
 16 29  1  0  0  0  0
 17 18  1  0  0  0  0
 17 30  1  0  0  0  0
 19 20  1  0  0  0  0
 20 31  1  0  0  0  0
 20 32  1  0  0  0  0
 20 33  1  0  0  0  0
 21 22  1  0  0  0  0
 22 34  1  0  0  0  0
 22 35  1  0  0  0  0
 22 36  1  0  0  0  0
M  END
> <From>
www.bindingDB.org

> <BindingDB Reactant_set_id>
50436580

> <Ligand InChI>
InChI=1S/C15H14N4O2S/c1-20-11-7-10(8-12(9-11)21-2)18-15-17-4-3-13(19-15)14-16-5-6-22-14/h3-9H,1-2H3,(H,17,18,19)

> <Ligand InChI Key>
GQUIEPYFROOKLV-UHFFFAOYSA-N

> <BindingDB MonomerID>
50276018

> <BindingDB Ligand Name>
1-(3-(cyclopenta-1,3-dienyl)benzyl)-3,5-diethylbenzene::CHEMBL472478

> <Target Name Assigned by Curator or DataSource>
Cyclin-dependent kinase 2

> <Target Source Organism According to Curator or DataSource>
Homo sapiens

> <Ki (nM)>
>5000

> <IC50 (nM)>


> <Kd (nM)>


> <EC50 (nM)>


> <kon (M-1-s-1)>


> <koff (s-1)>


> <pH>


> <Temp C>


> <Curation/DataSource>
ChEMBL

> <Article DOI>
10.1016/j.bmcl.2008.09.106

> <PMID>
18938080

> <PubChem AID>


> <Patent Number>


> <Authors>
Farmer, LJ; Bemis, G; Britt, SD; Cochran, J; Connors, M; Harrington, EM; Hoock, T; Markland, W; Nanthakumar, S; Taslimi, P; Ter Haar, E; Wang, J; Zhaveri, D; Salituro, FG

> <Institution>
Vertex Pharmaceuticals Inc

> <Link to Ligand in BindingDB>
http://www.bindingdb.org/bind/chemsearch/marvin/MolStructure.jsp?monomerid=50276018

> <Link to Ligand-Target Pair in BindingDB>
http://www.bindingdb.org/jsp/dbsearch/PrimarySearch_ki.jsp?energyterm=kJ/mole&tag=pol&polymerid=796&target=Cyclin-dependent+kinase+2&column=ki&startPg=0&Increment=50&submit=Search

> <Link to Ligand-Target Pair in BindingDB>
http://www.bindingdb.org/jsp/dbsearch/PrimarySearch_ki.jsp?energyterm=kJ/mole&tag=r21&monomerid=50276018&enzyme=Cyclin-dependent+kinase+2&column=ki&startPg=0&Increment=50&submit=Search

> <Ligand HET ID in PDB>


> <PDB ID(s) for Ligand-Target Complex>


> <PubChem CID>
25169255

> <PubChem SID>
104119354

> <ChEBI ID of Ligand>


> <ChEMBL ID of Ligand>
CHEMBL472478

> <DrugBank ID of Ligand>


> <IUPHAR_GRAC ID of Ligand>


> <KEGG ID of Ligand>


> <ZINC ID of Ligand>
ZINC40407316

> <Number of Protein Chains in Target (bigger than 1 implies a multichain complex)>
1

> <BindingDB Target Chain Sequence>
MENFQKVEKIGEGTYGVVYKARNKLTGEVVALKKIRLDTETEGVPSTAIREISLLKELNHPNIVKLLDVIHTENKLYLVFEFLHQDLKKFMDASALTGIPLPLIKSYLFQLLQGLAFCHSHRVLHRDLKPQNLLINTEGAIKLADFGLARAFGVPVRTYTHEVVTLWYRAPEILLGCKYYSTAVDIWSLGCIFAEMVTRRALFPGDSEIDQLFRIFRTLGTPDEVVWPGVTSMPDYKPSFPKWARQDFSKVVPPLDEDGRSLLSQMLHYDPNKRISAKAALAHPFFQDVTKPVPHLRL

> <PDB ID(s) of Target Chain>
1CKP,1DI8,1DM2,1E1V,1E1X,1E9H,1F5Q,1FIN,1FQ1,1FVT,1FVV,1G5S,1GIH,1GY3,1GZ8,1H00,1H01,1H07,1H08,1H0V,1H0W,1H1P,1H1Q,1H1R,1H1S,1H24,1H25,1H26,1H27,1H28,1HCK,1HCL,1JST,1JSU,1JSV,1JVP,1KE5,1KE6,1KE7,1KE8,1KE9,1OGU,1OI9,1OIQ,1OIR,1OIU,1OIY,1OKV,1OKW,1OL1,1OL2,1P2A,1P5E,1PF8,1PKD,1PW2,1PXI,1PXJ,1PXK,1PXL,1PXM,1PXN,1PXO,1PXP,1PYE,1QMZ,1R78,1URC,1URW,1V1K,1VYW,1VYZ,1W0X,1W8C,1W98,1WCC,1Y8Y,1Y91,1YKR,2A0C,2A4L,2B52,2B53,2B54,2B55,2BHE,2BHH,2BKZ,2BPM,2BTR,2BTS,2C4G,2C5N,2C5O,2C5V,2C5X,2C5Y,2C68,2C69,2C6I,2C6K,2C6L,2C6M,2C6O,2C6T,2CCH,2CCI,2CJM,2CLX,2DUV,2EXM,2FVD,2G9X,2I40,2J9M,2JGZ,2R3F,2R3G,2R3H,2R3I,2R3J,2R3K,2R3L,2R3M,2R3N,2R3O,2R3P,2R3Q,2R3R,2R64,2UUE,2UZB,2UZD,2UZE,2UZL,2UZN,2UZO,2V0D,2V22,2VTA,2VTH,2VTI,2VTJ,2VTL,2VTM,2VTN,2VTO,2VTP,2VTQ,2VTR,2VTS,2VTT,2VU3,2VV9,2W05,2W06,2W17,2W1H,2WEV,2WFY,2WHB,2WIH,2WIP,2WMA,2WMB,2WPA,2WXV,2X1N,2XMY,2XNB,3BHT,3BHU,3BHV,3DDP,3DDQ,3DOG,3EID,3EJ1,3EOC,3EZR,3EZV,3F5X,3FZ1,3IG7,3IGG,3LE6,3LFN,3LFQ,3LFS,3MY5,3NS9,3PJ8,3PXF,3PXQ,3PXR,3PXY,3PXZ,3PY0,3PY1,3QHR,3QHW,3QL8,3QQF,3QQG,3QQH,3QQJ,3QQK,3QQL,3QRT,3QRU,3QTQ,3QTR,3QTS,3QTU,3QTW,3QTX,3QTZ,3QU0,3QWJ,3QWK,3QX2,3QX4,3QXO,3QXP,3QZF,3QZG,3QZH,3QZI,3R1Q,3R1S,3R1Y,3R28,3R6X,3R71,3R73,3R7E,3R7I,3R7U,3R7V,3R7Y,3R83,3R8L,3R8M,3R8P,3R8U,3R8V,3R8Z,3R9D,3R9H,3R9N,3R9O,3RAH,3RAI,3RAK,3RAL,3RJC,3RK5,3RK7,3RK9,3RKB,3RM6,3RM7,3RMF,3RNI,3ROY,3RPO,3RPR,3RPV,3RPY,3RZB,3S00,3S0O,3S1H,3S2P,3SQQ,3SW4,3SW7,3TI1,3TIY,3TIZ,3TNW,3ULI,3UNJ,3UNK,3WBL,4ACM,4BCK,4BCM,4BCN,4BCO,4BCP,4BCQ,4BGH,4BZD,4CFM,4CFN,4CFU,4CFV,4CFW,4CFX,4D1X,4D1Z,4EK3,4EK4,4EK5,4EK6,4EK8,4EOQ,4EOR,4EOS,4ERW,4EZ3,4EZ7,4FKG,4FKI,4FKJ,4FKL,4FKO,4FKP,4FKQ,4FKR,4FKS,4FKT,4FKU,4FKV,4FKW,4FX3,4GCJ,4I3Z,4II5,4KD1,4LYN,4NJ3,4RJ3,5A14,5AND,5ANE,5ANG,5ANI,5ANJ,5ANK,5ANO,5CYI,5D1J,5FP5,5FP6,5IEV,5IEX,5IEY,5IF1,5JQ5,5JQ8,5K4J,5L2W,5LMK,5MHQ,5NEV,5OO0,5OSJ,5UQ1,5UQ2,5UQ3,6ATH,6GUB,6GUC,6GUE,6GUF,6GUH,6GUK,6GVA,6INL,6JGM,6OQI,6P3W,6Q3B,6Q3C,6Q3F,6Q48,6Q49,6Q4A,6Q4B,6Q4C,6Q4D,6Q4E,6Q4F,6Q4H,6Q4J,6Q4K,6RIJ,6SG4,7ACK,7B5L,7B5R,7B7S,7E34,7KJS,7M2F,7NVQ

> <UniProt (SwissProt) Recommended Name of Target Chain>
Cyclin-dependent kinase 2

> <UniProt (SwissProt) Entry Name of Target Chain>
CDK2_HUMAN

> <UniProt (SwissProt) Primary ID of Target Chain>
P24941

> <UniProt (SwissProt) Secondary ID(s) of Target Chain>
A8K7C6,O75100

> <UniProt (SwissProt) Alternative ID(s) of Target Chain>


> <UniProt (TrEMBL) Submitted Name of Target Chain>


> <UniProt (TrEMBL) Entry Name of Target Chain>


> <UniProt (TrEMBL) Primary ID of Target Chain>
A0A024RB77

> <UniProt (TrEMBL) Secondary ID(s) of Target Chain>


> <UniProt (TrEMBL) Alternative ID(s) of Target Chain>


$$$$
BindingDB_50249258_mol_1

Vconf v2.0 Academic SN VC001-00000579
 34 36  0  0  0  0  0  0  0  0999 V2000
   19.1260  -14.0450    2.7110 C   0  0  0  0  0  0  0  0  0  0  0
   18.5920  -14.7500    1.5360 C   0  0  0  0  0  0  0  0  0  0  0
   17.8670  -15.9440    1.7080 C   0  0  0  0  0  0  0  0  0  0  0
   17.3540  -16.6290    0.5950 C   0  0  0  0  0  0  0  0  0  0  0
   17.5540  -16.1340   -0.7080 C   0  0  0  0  0  0  0  0  0  0  0
   17.0060  -16.9080   -1.8380 C   0  0  0  0  0  0  0  0  0  0  0
   18.2700  -14.9250   -0.8850 C   0  0  0  0  0  0  0  0  0  0  0
   18.4890  -14.3840   -2.1070 N   0  0  0  0  0  0  0  0  0  0  0
   17.5510  -13.7140   -2.8160 C   0  0  0  0  0  0  0  0  0  0  0
   17.8960  -13.1880   -4.0140 N   0  0  0  0  0  0  0  0  0  0  0
   17.0070  -12.5070   -4.7760 C   0  0  0  0  0  0  0  0  0  0  0
   15.6900  -12.3320   -4.3320 C   0  0  0  0  0  0  0  0  0  0  0
   15.3380  -12.8820   -3.0860 C   0  0  0  0  0  0  0  0  0  0  0
   16.2780  -13.5510   -2.3740 N   0  0  0  0  0  0  0  0  0  0  0
   14.0470  -12.7680   -2.5490 C   0  0  0  0  0  0  0  0  0  0  0
   13.0330  -12.1330   -3.1640 N   0  0  0  0  0  0  0  0  0  0  0
   11.9040  -12.1660   -2.4460 C   0  0  0  0  0  0  0  0  0  0  0
   12.0530  -12.8430   -1.2460 C   0  0  0  0  0  0  0  0  0  0  0
   13.6510  -13.4580   -1.0070 S   0  0  0  0  0  0  0  0  0  0  0
   18.7910  -14.2490    0.2350 C   0  0  0  0  0  0  0  0  0  0  0
   19.6610  -13.1400    2.4180 H   0  0  0  0  0  0  0  0  0  0  0
   18.3070  -13.7670    3.3740 H   0  0  0  0  0  0  0  0  0  0  0
   19.8140  -14.6990    3.2480 H   0  0  0  0  0  0  0  0  0  0  0
   17.7140  -16.3170    2.6460 H   0  0  0  0  0  0  0  0  0  0  0
   16.8360  -17.4970    0.7370 H   0  0  0  0  0  0  0  0  0  0  0
   17.2600  -16.4610   -2.7990 H   0  0  0  0  0  0  0  0  0  0  0
   17.4090  -17.9210   -1.8140 H   0  0  0  0  0  0  0  0  0  0  0
   15.9200  -16.9550   -1.7520 H   0  0  0  0  0  0  0  0  0  0  0
   19.3820  -14.4420   -2.4800 H   0  0  0  0  0  0  0  0  0  0  0
   17.2980  -12.1220   -5.6750 H   0  0  0  0  0  0  0  0  0  0  0
   15.0140  -11.8200   -4.9020 H   0  0  0  0  0  0  0  0  0  0  0
   11.0290  -11.7390   -2.7500 H   0  0  0  0  0  0  0  0  0  0  0
   11.2980  -12.9650   -0.5720 H   0  0  0  0  0  0  0  0  0  0  0
   19.3110  -13.3810    0.1020 H   0  0  0  0  0  0  0  0  0  0  0
  1  2  1  0  0  0  0
  1 21  1  0  0  0  0
  1 22  1  0  0  0  0
  1 23  1  0  0  0  0
  2  3  2  0  0  0  0
  2 20  1  0  0  0  0
  3  4  1  0  0  0  0
  3 24  1  0  0  0  0
  4  5  2  0  0  0  0
  4 25  1  0  0  0  0
  5  6  1  0  0  0  0
  5  7  1  0  0  0  0
  6 26  1  0  0  0  0
  6 27  1  0  0  0  0
  6 28  1  0  0  0  0
  7  8  1  0  0  0  0
  7 20  2  0  0  0  0
  8  9  1  0  0  0  0
  8 29  1  0  0  0  0
  9 10  2  0  0  0  0
  9 14  1  0  0  0  0
 10 11  1  0  0  0  0
 11 12  2  0  0  0  0
 11 30  1  0  0  0  0
 12 13  1  0  0  0  0
 12 31  1  0  0  0  0
 13 14  2  0  0  0  0
 13 15  1  0  0  0  0
 15 16  2  0  0  0  0
 15 19  1  0  0  0  0
 16 17  1  0  0  0  0
 17 18  2  0  0  0  0
 17 32  1  0  0  0  0
 18 19  1  0  0  0  0
 18 33  1  0  0  0  0
 20 34  1  0  0  0  0
M  END
> <From>
www.bindingDB.org

> <BindingDB Reactant_set_id>
50436578

> <Ligand InChI>
InChI=1S/C15H14N4S/c1-10-3-4-11(2)13(9-10)19-15-17-6-5-12(18-15)14-16-7-8-20-14/h3-9H,1-2H3,(H,17,18,19)

> <Ligand InChI Key>
WPPTYGSKZRVJSC-UHFFFAOYSA-N

> <BindingDB MonomerID>
50249258

> <BindingDB Ligand Name>
CHEMBL475570::N-(2,5-dimethylphenyl)-4-(thiazol-2-yl)pyrimidin-2-amine

> <Target Name Assigned by Curator or DataSource>
Cyclin-dependent kinase 2

> <Target Source Organism According to Curator or DataSource>
Homo sapiens

> <Ki (nM)>
>5000

> <IC50 (nM)>


> <Kd (nM)>


> <EC50 (nM)>


> <kon (M-1-s-1)>


> <koff (s-1)>


> <pH>


> <Temp C>


> <Curation/DataSource>
ChEMBL

> <Article DOI>
10.1016/j.bmcl.2008.09.106

> <PMID>
18938080

> <PubChem AID>


> <Patent Number>


> <Authors>
Farmer, LJ; Bemis, G; Britt, SD; Cochran, J; Connors, M; Harrington, EM; Hoock, T; Markland, W; Nanthakumar, S; Taslimi, P; Ter Haar, E; Wang, J; Zhaveri, D; Salituro, FG

> <Institution>
Vertex Pharmaceuticals Inc

> <Link to Ligand in BindingDB>
http://www.bindingdb.org/bind/chemsearch/marvin/MolStructure.jsp?monomerid=50249258

> <Link to Ligand-Target Pair in BindingDB>
http://www.bindingdb.org/jsp/dbsearch/PrimarySearch_ki.jsp?energyterm=kJ/mole&tag=pol&polymerid=796&target=Cyclin-dependent+kinase+2&column=ki&startPg=0&Increment=50&submit=Search

> <Link to Ligand-Target Pair in BindingDB>
http://www.bindingdb.org/jsp/dbsearch/PrimarySearch_ki.jsp?energyterm=kJ/mole&tag=r21&monomerid=50249258&enzyme=Cyclin-dependent+kinase+2&column=ki&startPg=0&Increment=50&submit=Search

> <Ligand HET ID in PDB>


> <PDB ID(s) for Ligand-Target Complex>


> <PubChem CID>
44593468

> <PubChem SID>
104103602

> <ChEBI ID of Ligand>


> <ChEMBL ID of Ligand>
CHEMBL475570

> <DrugBank ID of Ligand>


> <IUPHAR_GRAC ID of Ligand>


> <KEGG ID of Ligand>


> <ZINC ID of Ligand>
ZINC40897373

> <Number of Protein Chains in Target (bigger than 1 implies a multichain complex)>
1

> <BindingDB Target Chain Sequence>
MENFQKVEKIGEGTYGVVYKARNKLTGEVVALKKIRLDTETEGVPSTAIREISLLKELNHPNIVKLLDVIHTENKLYLVFEFLHQDLKKFMDASALTGIPLPLIKSYLFQLLQGLAFCHSHRVLHRDLKPQNLLINTEGAIKLADFGLARAFGVPVRTYTHEVVTLWYRAPEILLGCKYYSTAVDIWSLGCIFAEMVTRRALFPGDSEIDQLFRIFRTLGTPDEVVWPGVTSMPDYKPSFPKWARQDFSKVVPPLDEDGRSLLSQMLHYDPNKRISAKAALAHPFFQDVTKPVPHLRL

> <PDB ID(s) of Target Chain>
1CKP,1DI8,1DM2,1E1V,1E1X,1E9H,1F5Q,1FIN,1FQ1,1FVT,1FVV,1G5S,1GIH,1GY3,1GZ8,1H00,1H01,1H07,1H08,1H0V,1H0W,1H1P,1H1Q,1H1R,1H1S,1H24,1H25,1H26,1H27,1H28,1HCK,1HCL,1JST,1JSU,1JSV,1JVP,1KE5,1KE6,1KE7,1KE8,1KE9,1OGU,1OI9,1OIQ,1OIR,1OIU,1OIY,1OKV,1OKW,1OL1,1OL2,1P2A,1P5E,1PF8,1PKD,1PW2,1PXI,1PXJ,1PXK,1PXL,1PXM,1PXN,1PXO,1PXP,1PYE,1QMZ,1R78,1URC,1URW,1V1K,1VYW,1VYZ,1W0X,1W8C,1W98,1WCC,1Y8Y,1Y91,1YKR,2A0C,2A4L,2B52,2B53,2B54,2B55,2BHE,2BHH,2BKZ,2BPM,2BTR,2BTS,2C4G,2C5N,2C5O,2C5V,2C5X,2C5Y,2C68,2C69,2C6I,2C6K,2C6L,2C6M,2C6O,2C6T,2CCH,2CCI,2CJM,2CLX,2DUV,2EXM,2FVD,2G9X,2I40,2J9M,2JGZ,2R3F,2R3G,2R3H,2R3I,2R3J,2R3K,2R3L,2R3M,2R3N,2R3O,2R3P,2R3Q,2R3R,2R64,2UUE,2UZB,2UZD,2UZE,2UZL,2UZN,2UZO,2V0D,2V22,2VTA,2VTH,2VTI,2VTJ,2VTL,2VTM,2VTN,2VTO,2VTP,2VTQ,2VTR,2VTS,2VTT,2VU3,2VV9,2W05,2W06,2W17,2W1H,2WEV,2WFY,2WHB,2WIH,2WIP,2WMA,2WMB,2WPA,2WXV,2X1N,2XMY,2XNB,3BHT,3BHU,3BHV,3DDP,3DDQ,3DOG,3EID,3EJ1,3EOC,3EZR,3EZV,3F5X,3FZ1,3IG7,3IGG,3LE6,3LFN,3LFQ,3LFS,3MY5,3NS9,3PJ8,3PXF,3PXQ,3PXR,3PXY,3PXZ,3PY0,3PY1,3QHR,3QHW,3QL8,3QQF,3QQG,3QQH,3QQJ,3QQK,3QQL,3QRT,3QRU,3QTQ,3QTR,3QTS,3QTU,3QTW,3QTX,3QTZ,3QU0,3QWJ,3QWK,3QX2,3QX4,3QXO,3QXP,3QZF,3QZG,3QZH,3QZI,3R1Q,3R1S,3R1Y,3R28,3R6X,3R71,3R73,3R7E,3R7I,3R7U,3R7V,3R7Y,3R83,3R8L,3R8M,3R8P,3R8U,3R8V,3R8Z,3R9D,3R9H,3R9N,3R9O,3RAH,3RAI,3RAK,3RAL,3RJC,3RK5,3RK7,3RK9,3RKB,3RM6,3RM7,3RMF,3RNI,3ROY,3RPO,3RPR,3RPV,3RPY,3RZB,3S00,3S0O,3S1H,3S2P,3SQQ,3SW4,3SW7,3TI1,3TIY,3TIZ,3TNW,3ULI,3UNJ,3UNK,3WBL,4ACM,4BCK,4BCM,4BCN,4BCO,4BCP,4BCQ,4BGH,4BZD,4CFM,4CFN,4CFU,4CFV,4CFW,4CFX,4D1X,4D1Z,4EK3,4EK4,4EK5,4EK6,4EK8,4EOQ,4EOR,4EOS,4ERW,4EZ3,4EZ7,4FKG,4FKI,4FKJ,4FKL,4FKO,4FKP,4FKQ,4FKR,4FKS,4FKT,4FKU,4FKV,4FKW,4FX3,4GCJ,4I3Z,4II5,4KD1,4LYN,4NJ3,4RJ3,5A14,5AND,5ANE,5ANG,5ANI,5ANJ,5ANK,5ANO,5CYI,5D1J,5FP5,5FP6,5IEV,5IEX,5IEY,5IF1,5JQ5,5JQ8,5K4J,5L2W,5LMK,5MHQ,5NEV,5OO0,5OSJ,5UQ1,5UQ2,5UQ3,6ATH,6GUB,6GUC,6GUE,6GUF,6GUH,6GUK,6GVA,6INL,6JGM,6OQI,6P3W,6Q3B,6Q3C,6Q3F,6Q48,6Q49,6Q4A,6Q4B,6Q4C,6Q4D,6Q4E,6Q4F,6Q4H,6Q4J,6Q4K,6RIJ,6SG4,7ACK,7B5L,7B5R,7B7S,7E34,7KJS,7M2F,7NVQ

> <UniProt (SwissProt) Recommended Name of Target Chain>
Cyclin-dependent kinase 2

> <UniProt (SwissProt) Entry Name of Target Chain>
CDK2_HUMAN

> <UniProt (SwissProt) Primary ID of Target Chain>
P24941

> <UniProt (SwissProt) Secondary ID(s) of Target Chain>
A8K7C6,O75100

> <UniProt (SwissProt) Alternative ID(s) of Target Chain>


> <UniProt (TrEMBL) Submitted Name of Target Chain>


> <UniProt (TrEMBL) Entry Name of Target Chain>


> <UniProt (TrEMBL) Primary ID of Target Chain>
A0A024RB77

> <UniProt (TrEMBL) Secondary ID(s) of Target Chain>


> <UniProt (TrEMBL) Alternative ID(s) of Target Chain>


$$$$
BindingDB_50249286_mol_1

Vconf v2.0 Academic SN VC001-00000579
 42 44  0  0  0  0  0  0  0  0999 V2000
   -4.9070  -17.5320    3.8740 O   0  0  0  0  0  0  0  0  0  0  0
   -4.0660  -16.6710    4.6300 C   0  0  0  0  0  0  0  0  0  0  0
   -3.1560  -15.8680    3.6910 C   0  0  0  0  0  0  0  0  0  0  0
   -2.2180  -16.7970    2.9110 C   0  0  0  0  0  0  0  0  0  0  0
   -1.4190  -16.0090    2.0240 O   0  0  0  0  0  0  0  0  0  0  0
   -0.5500  -16.5750    1.1370 C   0  0  0  0  0  0  0  0  0  0  0
   -0.1580  -17.9270    1.1850 C   0  0  0  0  0  0  0  0  0  0  0
    0.7190  -18.4620    0.2190 C   0  0  0  0  0  0  0  0  0  0  0
    1.1490  -19.7530    0.2130 N   0  0  0  0  0  0  0  0  0  0  0
    0.4740  -20.8540    0.6270 C   0  0  0  0  0  0  0  0  0  0  0
    1.1040  -22.0480    0.5320 N   0  0  0  0  0  0  0  0  0  0  0
    0.5140  -23.2030    0.9180 C   0  0  0  0  0  0  0  0  0  0  0
   -0.7880  -23.1870    1.4350 C   0  0  0  0  0  0  0  0  0  0  0
   -1.4420  -21.9450    1.5300 C   0  0  0  0  0  0  0  0  0  0  0
   -0.7900  -20.8280    1.1200 N   0  0  0  0  0  0  0  0  0  0  0
   -2.7430  -21.8180    2.0400 C   0  0  0  0  0  0  0  0  0  0  0
   -3.4800  -22.8550    2.4790 N   0  0  0  0  0  0  0  0  0  0  0
   -4.6820  -22.4710    2.9250 C   0  0  0  0  0  0  0  0  0  0  0
   -4.8780  -21.1030    2.8270 C   0  0  0  0  0  0  0  0  0  0  0
   -3.5200  -20.2700    2.1550 S   0  0  0  0  0  0  0  0  0  0  0
    1.2270  -17.6100   -0.7790 C   0  0  0  0  0  0  0  0  0  0  0
    0.8650  -16.2460   -0.8450 C   0  0  0  0  0  0  0  0  0  0  0
   -0.0280  -15.7470    0.1290 C   0  0  0  0  0  0  0  0  0  0  0
    1.4250  -15.3870   -1.9230 C   0  0  0  0  0  0  0  0  0  0  0
    1.0010  -14.0790   -1.8770 F   0  0  0  0  0  0  0  0  0  0  0
    2.7970  -15.3660   -1.8450 F   0  0  0  0  0  0  0  0  0  0  0
    1.0660  -15.8810   -3.1540 F   0  0  0  0  0  0  0  0  0  0  0
   -5.5250  -18.0700    4.4130 H   0  0  0  0  0  0  0  0  0  0  0
   -3.4580  -17.2650    5.3130 H   0  0  0  0  0  0  0  0  0  0  0
   -4.6840  -15.9820    5.2070 H   0  0  0  0  0  0  0  0  0  0  0
   -2.5580  -15.1710    4.2790 H   0  0  0  0  0  0  0  0  0  0  0
   -3.7710  -15.3040    2.9890 H   0  0  0  0  0  0  0  0  0  0  0
   -2.8160  -17.5080    2.3380 H   0  0  0  0  0  0  0  0  0  0  0
   -1.5820  -17.3370    3.6140 H   0  0  0  0  0  0  0  0  0  0  0
   -0.5100  -18.5220    1.9340 H   0  0  0  0  0  0  0  0  0  0  0
    2.0280  -19.9140   -0.1630 H   0  0  0  0  0  0  0  0  0  0  0
    1.0190  -24.0860    0.8330 H   0  0  0  0  0  0  0  0  0  0  0
   -1.2390  -24.0530    1.7330 H   0  0  0  0  0  0  0  0  0  0  0
   -5.3780  -23.1170    3.2980 H   0  0  0  0  0  0  0  0  0  0  0
   -5.7350  -20.6340    3.1200 H   0  0  0  0  0  0  0  0  0  0  0
    1.8730  -17.9860   -1.4750 H   0  0  0  0  0  0  0  0  0  0  0
   -0.3120  -14.7670    0.1050 H   0  0  0  0  0  0  0  0  0  0  0
  1  2  1  0  0  0  0
  1 28  1  0  0  0  0
  2  3  1  0  0  0  0
  2 29  1  0  0  0  0
  2 30  1  0  0  0  0
  3  4  1  0  0  0  0
  3 31  1  0  0  0  0
  3 32  1  0  0  0  0
  4  5  1  0  0  0  0
  4 33  1  0  0  0  0
  4 34  1  0  0  0  0
  5  6  1  0  0  0  0
  6  7  2  0  0  0  0
  6 23  1  0  0  0  0
  7  8  1  0  0  0  0
  7 35  1  0  0  0  0
  8  9  1  0  0  0  0
  8 21  2  0  0  0  0
  9 10  1  0  0  0  0
  9 36  1  0  0  0  0
 10 11  2  0  0  0  0
 10 15  1  0  0  0  0
 11 12  1  0  0  0  0
 12 13  2  0  0  0  0
 12 37  1  0  0  0  0
 13 14  1  0  0  0  0
 13 38  1  0  0  0  0
 14 15  2  0  0  0  0
 14 16  1  0  0  0  0
 16 17  2  0  0  0  0
 16 20  1  0  0  0  0
 17 18  1  0  0  0  0
 18 19  2  0  0  0  0
 18 39  1  0  0  0  0
 19 20  1  0  0  0  0
 19 40  1  0  0  0  0
 21 22  1  0  0  0  0
 21 41  1  0  0  0  0
 22 23  2  0  0  0  0
 22 24  1  0  0  0  0
 23 42  1  0  0  0  0
 24 25  1  0  0  0  0
 24 26  1  0  0  0  0
 24 27  1  0  0  0  0
M  END
> <From>
www.bindingDB.org

> <BindingDB Reactant_set_id>
50436566

> <Ligand InChI>
InChI=1S/C17H15F3N4O2S/c18-17(19,20)11-8-12(10-13(9-11)26-6-1-5-25)23-16-22-3-2-14(24-16)15-21-4-7-27-15/h2-4,7-10,25H,1,5-6H2,(H,22,23,24)

> <Ligand InChI Key>
UNGHXZVJQQABCA-UHFFFAOYSA-N

> <BindingDB MonomerID>
50249286

> <BindingDB Ligand Name>
3-(3-(4-(thiazol-2-yl)pyrimidin-2-ylamino)-5-(trifluoromethyl)phenoxy)propan-1-ol::CHEMBL475254

> <Target Name Assigned by Curator or DataSource>
Cyclin-dependent kinase 2

> <Target Source Organism According to Curator or DataSource>
Homo sapiens

> <Ki (nM)>
>5000

> <IC50 (nM)>


> <Kd (nM)>


> <EC50 (nM)>


> <kon (M-1-s-1)>


> <koff (s-1)>


> <pH>


> <Temp C>


> <Curation/DataSource>
ChEMBL

> <Article DOI>
10.1016/j.bmcl.2008.09.106

> <PMID>
18938080

> <PubChem AID>


> <Patent Number>


> <Authors>
Farmer, LJ; Bemis, G; Britt, SD; Cochran, J; Connors, M; Harrington, EM; Hoock, T; Markland, W; Nanthakumar, S; Taslimi, P; Ter Haar, E; Wang, J; Zhaveri, D; Salituro, FG

> <Institution>
Vertex Pharmaceuticals Inc

> <Link to Ligand in BindingDB>
http://www.bindingdb.org/bind/chemsearch/marvin/MolStructure.jsp?monomerid=50249286

> <Link to Ligand-Target Pair in BindingDB>
http://www.bindingdb.org/jsp/dbsearch/PrimarySearch_ki.jsp?energyterm=kJ/mole&tag=pol&polymerid=796&target=Cyclin-dependent+kinase+2&column=ki&startPg=0&Increment=50&submit=Search

> <Link to Ligand-Target Pair in BindingDB>
http://www.bindingdb.org/jsp/dbsearch/PrimarySearch_ki.jsp?energyterm=kJ/mole&tag=r21&monomerid=50249286&enzyme=Cyclin-dependent+kinase+2&column=ki&startPg=0&Increment=50&submit=Search

> <Ligand HET ID in PDB>


> <PDB ID(s) for Ligand-Target Complex>


> <PubChem CID>
25169256

> <PubChem SID>
104103622

> <ChEBI ID of Ligand>


> <ChEMBL ID of Ligand>
CHEMBL475254

> <DrugBank ID of Ligand>


> <IUPHAR_GRAC ID of Ligand>


> <KEGG ID of Ligand>


> <ZINC ID of Ligand>
ZINC40897766

> <Number of Protein Chains in Target (bigger than 1 implies a multichain complex)>
1

> <BindingDB Target Chain Sequence>
MENFQKVEKIGEGTYGVVYKARNKLTGEVVALKKIRLDTETEGVPSTAIREISLLKELNHPNIVKLLDVIHTENKLYLVFEFLHQDLKKFMDASALTGIPLPLIKSYLFQLLQGLAFCHSHRVLHRDLKPQNLLINTEGAIKLADFGLARAFGVPVRTYTHEVVTLWYRAPEILLGCKYYSTAVDIWSLGCIFAEMVTRRALFPGDSEIDQLFRIFRTLGTPDEVVWPGVTSMPDYKPSFPKWARQDFSKVVPPLDEDGRSLLSQMLHYDPNKRISAKAALAHPFFQDVTKPVPHLRL

> <PDB ID(s) of Target Chain>
1CKP,1DI8,1DM2,1E1V,1E1X,1E9H,1F5Q,1FIN,1FQ1,1FVT,1FVV,1G5S,1GIH,1GY3,1GZ8,1H00,1H01,1H07,1H08,1H0V,1H0W,1H1P,1H1Q,1H1R,1H1S,1H24,1H25,1H26,1H27,1H28,1HCK,1HCL,1JST,1JSU,1JSV,1JVP,1KE5,1KE6,1KE7,1KE8,1KE9,1OGU,1OI9,1OIQ,1OIR,1OIU,1OIY,1OKV,1OKW,1OL1,1OL2,1P2A,1P5E,1PF8,1PKD,1PW2,1PXI,1PXJ,1PXK,1PXL,1PXM,1PXN,1PXO,1PXP,1PYE,1QMZ,1R78,1URC,1URW,1V1K,1VYW,1VYZ,1W0X,1W8C,1W98,1WCC,1Y8Y,1Y91,1YKR,2A0C,2A4L,2B52,2B53,2B54,2B55,2BHE,2BHH,2BKZ,2BPM,2BTR,2BTS,2C4G,2C5N,2C5O,2C5V,2C5X,2C5Y,2C68,2C69,2C6I,2C6K,2C6L,2C6M,2C6O,2C6T,2CCH,2CCI,2CJM,2CLX,2DUV,2EXM,2FVD,2G9X,2I40,2J9M,2JGZ,2R3F,2R3G,2R3H,2R3I,2R3J,2R3K,2R3L,2R3M,2R3N,2R3O,2R3P,2R3Q,2R3R,2R64,2UUE,2UZB,2UZD,2UZE,2UZL,2UZN,2UZO,2V0D,2V22,2VTA,2VTH,2VTI,2VTJ,2VTL,2VTM,2VTN,2VTO,2VTP,2VTQ,2VTR,2VTS,2VTT,2VU3,2VV9,2W05,2W06,2W17,2W1H,2WEV,2WFY,2WHB,2WIH,2WIP,2WMA,2WMB,2WPA,2WXV,2X1N,2XMY,2XNB,3BHT,3BHU,3BHV,3DDP,3DDQ,3DOG,3EID,3EJ1,3EOC,3EZR,3EZV,3F5X,3FZ1,3IG7,3IGG,3LE6,3LFN,3LFQ,3LFS,3MY5,3NS9,3PJ8,3PXF,3PXQ,3PXR,3PXY,3PXZ,3PY0,3PY1,3QHR,3QHW,3QL8,3QQF,3QQG,3QQH,3QQJ,3QQK,3QQL,3QRT,3QRU,3QTQ,3QTR,3QTS,3QTU,3QTW,3QTX,3QTZ,3QU0,3QWJ,3QWK,3QX2,3QX4,3QXO,3QXP,3QZF,3QZG,3QZH,3QZI,3R1Q,3R1S,3R1Y,3R28,3R6X,3R71,3R73,3R7E,3R7I,3R7U,3R7V,3R7Y,3R83,3R8L,3R8M,3R8P,3R8U,3R8V,3R8Z,3R9D,3R9H,3R9N,3R9O,3RAH,3RAI,3RAK,3RAL,3RJC,3RK5,3RK7,3RK9,3RKB,3RM6,3RM7,3RMF,3RNI,3ROY,3RPO,3RPR,3RPV,3RPY,3RZB,3S00,3S0O,3S1H,3S2P,3SQQ,3SW4,3SW7,3TI1,3TIY,3TIZ,3TNW,3ULI,3UNJ,3UNK,3WBL,4ACM,4BCK,4BCM,4BCN,4BCO,4BCP,4BCQ,4BGH,4BZD,4CFM,4CFN,4CFU,4CFV,4CFW,4CFX,4D1X,4D1Z,4EK3,4EK4,4EK5,4EK6,4EK8,4EOQ,4EOR,4EOS,4ERW,4EZ3,4EZ7,4FKG,4FKI,4FKJ,4FKL,4FKO,4FKP,4FKQ,4FKR,4FKS,4FKT,4FKU,4FKV,4FKW,4FX3,4GCJ,4I3Z,4II5,4KD1,4LYN,4NJ3,4RJ3,5A14,5AND,5ANE,5ANG,5ANI,5ANJ,5ANK,5ANO,5CYI,5D1J,5FP5,5FP6,5IEV,5IEX,5IEY,5IF1,5JQ5,5JQ8,5K4J,5L2W,5LMK,5MHQ,5NEV,5OO0,5OSJ,5UQ1,5UQ2,5UQ3,6ATH,6GUB,6GUC,6GUE,6GUF,6GUH,6GUK,6GVA,6INL,6JGM,6OQI,6P3W,6Q3B,6Q3C,6Q3F,6Q48,6Q49,6Q4A,6Q4B,6Q4C,6Q4D,6Q4E,6Q4F,6Q4H,6Q4J,6Q4K,6RIJ,6SG4,7ACK,7B5L,7B5R,7B7S,7E34,7KJS,7M2F,7NVQ

> <UniProt (SwissProt) Recommended Name of Target Chain>
Cyclin-dependent kinase 2

> <UniProt (SwissProt) Entry Name of Target Chain>
CDK2_HUMAN

> <UniProt (SwissProt) Primary ID of Target Chain>
P24941

> <UniProt (SwissProt) Secondary ID(s) of Target Chain>
A8K7C6,O75100

> <UniProt (SwissProt) Alternative ID(s) of Target Chain>


> <UniProt (TrEMBL) Submitted Name of Target Chain>


> <UniProt (TrEMBL) Entry Name of Target Chain>


> <UniProt (TrEMBL) Primary ID of Target Chain>
A0A024RB77

> <UniProt (TrEMBL) Secondary ID(s) of Target Chain>


> <UniProt (TrEMBL) Alternative ID(s) of Target Chain>


$$$$
BindingDB_50276016_mol_1

Vconf v2.0 Academic SN VC001-00000579
 35 37  0  0  0  0  0  0  0  0999 V2000
   -2.0280  -12.8370    1.3170 C   0  0  0  0  0  0  0  0  0  0  0
   -2.0590  -14.1840    0.9030 C   0  0  0  0  0  0  0  0  0  0  0
   -0.8890  -14.7610    0.3770 C   0  0  0  0  0  0  0  0  0  0  0
    0.3160  -14.0310    0.2810 C   0  0  0  0  0  0  0  0  0  0  0
    0.3190  -12.6870    0.7200 C   0  0  0  0  0  0  0  0  0  0  0
   -0.8460  -12.0820    1.2350 C   0  0  0  0  0  0  0  0  0  0  0
   -3.1820  -14.9460    0.9420 N   0  0  0  0  0  0  0  0  0  0  0
   -4.0710  -15.0120    1.9610 C   0  0  0  0  0  0  0  0  0  0  0
   -5.1320  -15.8420    1.8300 N   0  0  0  0  0  0  0  0  0  0  0
   -6.0630  -15.9720    2.8050 C   0  0  0  0  0  0  0  0  0  0  0
   -5.9450  -15.2380    3.9920 C   0  0  0  0  0  0  0  0  0  0  0
   -4.8380  -14.3800    4.1240 C   0  0  0  0  0  0  0  0  0  0  0
   -3.9440  -14.2990    3.1090 N   0  0  0  0  0  0  0  0  0  0  0
   -4.6210  -13.6000    5.2710 C   0  0  0  0  0  0  0  0  0  0  0
   -3.2410  -12.5550    5.4000 S   0  0  0  0  0  0  0  0  0  0  0
   -3.8350  -12.1180    6.9640 C   0  0  0  0  0  0  0  0  0  0  0
   -5.0130  -12.7660    7.3000 C   0  0  0  0  0  0  0  0  0  0  0
   -5.4400  -13.5930    6.3390 N   0  0  0  0  0  0  0  0  0  0  0
   -0.9050  -10.7870    1.6640 O   0  0  0  0  0  0  0  0  0  0  0
    0.2200   -9.9050    1.6110 C   0  0  0  0  0  0  0  0  0  0  0
    1.5280  -14.6900   -0.2720 C   0  0  0  0  0  0  0  0  0  0  0
    2.6400  -13.8800   -0.3130 F   0  0  0  0  0  0  0  0  0  0  0
    1.8590  -15.7860    0.4880 F   0  0  0  0  0  0  0  0  0  0  0
    1.2920  -15.1090   -1.5600 F   0  0  0  0  0  0  0  0  0  0  0
   -2.8750  -12.3960    1.6790 H   0  0  0  0  0  0  0  0  0  0  0
   -0.9100  -15.7330    0.0630 H   0  0  0  0  0  0  0  0  0  0  0
    1.1770  -12.1410    0.6600 H   0  0  0  0  0  0  0  0  0  0  0
   -3.3400  -15.5390    0.1910 H   0  0  0  0  0  0  0  0  0  0  0
   -6.8510  -16.6070    2.6730 H   0  0  0  0  0  0  0  0  0  0  0
   -6.6430  -15.3300    4.7310 H   0  0  0  0  0  0  0  0  0  0  0
   -3.3650  -11.4520    7.5770 H   0  0  0  0  0  0  0  0  0  0  0
   -5.5030  -12.6270    8.1840 H   0  0  0  0  0  0  0  0  0  0  0
   -0.0770   -8.9340    2.0070 H   0  0  0  0  0  0  0  0  0  0  0
    1.0380  -10.2980    2.2170 H   0  0  0  0  0  0  0  0  0  0  0
    0.5530   -9.7780    0.5800 H   0  0  0  0  0  0  0  0  0  0  0
  1  2  1  0  0  0  0
  1  6  2  0  0  0  0
  1 25  1  0  0  0  0
  2  3  2  0  0  0  0
  2  7  1  0  0  0  0
  3  4  1  0  0  0  0
  3 26  1  0  0  0  0
  4  5  2  0  0  0  0
  4 21  1  0  0  0  0
  5  6  1  0  0  0  0
  5 27  1  0  0  0  0
  6 19  1  0  0  0  0
  7  8  1  0  0  0  0
  7 28  1  0  0  0  0
  8  9  1  0  0  0  0
  8 13  2  0  0  0  0
  9 10  2  0  0  0  0
 10 11  1  0  0  0  0
 10 29  1  0  0  0  0
 11 12  2  0  0  0  0
 11 30  1  0  0  0  0
 12 13  1  0  0  0  0
 12 14  1  0  0  0  0
 14 15  1  0  0  0  0
 14 18  2  0  0  0  0
 15 16  1  0  0  0  0
 16 17  2  0  0  0  0
 16 31  1  0  0  0  0
 17 18  1  0  0  0  0
 17 32  1  0  0  0  0
 19 20  1  0  0  0  0
 20 33  1  0  0  0  0
 20 34  1  0  0  0  0
 20 35  1  0  0  0  0
 21 22  1  0  0  0  0
 21 23  1  0  0  0  0
 21 24  1  0  0  0  0
M  END
> <From>
www.bindingDB.org

> <BindingDB Reactant_set_id>
50436582

> <Ligand InChI>
InChI=1S/C15H11F3N4OS/c1-23-11-7-9(15(16,17)18)6-10(8-11)21-14-20-3-2-12(22-14)13-19-4-5-24-13/h2-8H,1H3,(H,20,21,22)

> <Ligand InChI Key>
QPSIQVQZGHKFDD-UHFFFAOYSA-N

> <BindingDB MonomerID>
50276016

> <BindingDB Ligand Name>
CHEMBL512319::N-(3-methoxy-5-(trifluoromethyl)phenyl)-4-(thiazol-2-yl)pyrimidin-2-amine

> <Target Name Assigned by Curator or DataSource>
Cyclin-dependent kinase 2

> <Target Source Organism According to Curator or DataSource>
Homo sapiens

> <Ki (nM)>
>5000

> <IC50 (nM)>


> <Kd (nM)>


> <EC50 (nM)>


> <kon (M-1-s-1)>


> <koff (s-1)>


> <pH>


> <Temp C>


> <Curation/DataSource>
ChEMBL

> <Article DOI>
10.1016/j.bmcl.2008.09.106

> <PMID>
18938080

> <PubChem AID>


> <Patent Number>


> <Authors>
Farmer, LJ; Bemis, G; Britt, SD; Cochran, J; Connors, M; Harrington, EM; Hoock, T; Markland, W; Nanthakumar, S; Taslimi, P; Ter Haar, E; Wang, J; Zhaveri, D; Salituro, FG

> <Institution>
Vertex Pharmaceuticals Inc

> <Link to Ligand in BindingDB>
http://www.bindingdb.org/bind/chemsearch/marvin/MolStructure.jsp?monomerid=50276016

> <Link to Ligand-Target Pair in BindingDB>
http://www.bindingdb.org/jsp/dbsearch/PrimarySearch_ki.jsp?energyterm=kJ/mole&tag=pol&polymerid=796&target=Cyclin-dependent+kinase+2&column=ki&startPg=0&Increment=50&submit=Search

> <Link to Ligand-Target Pair in BindingDB>
http://www.bindingdb.org/jsp/dbsearch/PrimarySearch_ki.jsp?energyterm=kJ/mole&tag=r21&monomerid=50276016&enzyme=Cyclin-dependent+kinase+2&column=ki&startPg=0&Increment=50&submit=Search

> <Ligand HET ID in PDB>


> <PDB ID(s) for Ligand-Target Complex>


> <PubChem CID>
44590149

> <PubChem SID>
104119352

> <ChEBI ID of Ligand>


> <ChEMBL ID of Ligand>
CHEMBL512319

> <DrugBank ID of Ligand>


> <IUPHAR_GRAC ID of Ligand>


> <KEGG ID of Ligand>


> <ZINC ID of Ligand>
ZINC40893639

> <Number of Protein Chains in Target (bigger than 1 implies a multichain complex)>
1

> <BindingDB Target Chain Sequence>
MENFQKVEKIGEGTYGVVYKARNKLTGEVVALKKIRLDTETEGVPSTAIREISLLKELNHPNIVKLLDVIHTENKLYLVFEFLHQDLKKFMDASALTGIPLPLIKSYLFQLLQGLAFCHSHRVLHRDLKPQNLLINTEGAIKLADFGLARAFGVPVRTYTHEVVTLWYRAPEILLGCKYYSTAVDIWSLGCIFAEMVTRRALFPGDSEIDQLFRIFRTLGTPDEVVWPGVTSMPDYKPSFPKWARQDFSKVVPPLDEDGRSLLSQMLHYDPNKRISAKAALAHPFFQDVTKPVPHLRL

> <PDB ID(s) of Target Chain>
1CKP,1DI8,1DM2,1E1V,1E1X,1E9H,1F5Q,1FIN,1FQ1,1FVT,1FVV,1G5S,1GIH,1GY3,1GZ8,1H00,1H01,1H07,1H08,1H0V,1H0W,1H1P,1H1Q,1H1R,1H1S,1H24,1H25,1H26,1H27,1H28,1HCK,1HCL,1JST,1JSU,1JSV,1JVP,1KE5,1KE6,1KE7,1KE8,1KE9,1OGU,1OI9,1OIQ,1OIR,1OIU,1OIY,1OKV,1OKW,1OL1,1OL2,1P2A,1P5E,1PF8,1PKD,1PW2,1PXI,1PXJ,1PXK,1PXL,1PXM,1PXN,1PXO,1PXP,1PYE,1QMZ,1R78,1URC,1URW,1V1K,1VYW,1VYZ,1W0X,1W8C,1W98,1WCC,1Y8Y,1Y91,1YKR,2A0C,2A4L,2B52,2B53,2B54,2B55,2BHE,2BHH,2BKZ,2BPM,2BTR,2BTS,2C4G,2C5N,2C5O,2C5V,2C5X,2C5Y,2C68,2C69,2C6I,2C6K,2C6L,2C6M,2C6O,2C6T,2CCH,2CCI,2CJM,2CLX,2DUV,2EXM,2FVD,2G9X,2I40,2J9M,2JGZ,2R3F,2R3G,2R3H,2R3I,2R3J,2R3K,2R3L,2R3M,2R3N,2R3O,2R3P,2R3Q,2R3R,2R64,2UUE,2UZB,2UZD,2UZE,2UZL,2UZN,2UZO,2V0D,2V22,2VTA,2VTH,2VTI,2VTJ,2VTL,2VTM,2VTN,2VTO,2VTP,2VTQ,2VTR,2VTS,2VTT,2VU3,2VV9,2W05,2W06,2W17,2W1H,2WEV,2WFY,2WHB,2WIH,2WIP,2WMA,2WMB,2WPA,2WXV,2X1N,2XMY,2XNB,3BHT,3BHU,3BHV,3DDP,3DDQ,3DOG,3EID,3EJ1,3EOC,3EZR,3EZV,3F5X,3FZ1,3IG7,3IGG,3LE6,3LFN,3LFQ,3LFS,3MY5,3NS9,3PJ8,3PXF,3PXQ,3PXR,3PXY,3PXZ,3PY0,3PY1,3QHR,3QHW,3QL8,3QQF,3QQG,3QQH,3QQJ,3QQK,3QQL,3QRT,3QRU,3QTQ,3QTR,3QTS,3QTU,3QTW,3QTX,3QTZ,3QU0,3QWJ,3QWK,3QX2,3QX4,3QXO,3QXP,3QZF,3QZG,3QZH,3QZI,3R1Q,3R1S,3R1Y,3R28,3R6X,3R71,3R73,3R7E,3R7I,3R7U,3R7V,3R7Y,3R83,3R8L,3R8M,3R8P,3R8U,3R8V,3R8Z,3R9D,3R9H,3R9N,3R9O,3RAH,3RAI,3RAK,3RAL,3RJC,3RK5,3RK7,3RK9,3RKB,3RM6,3RM7,3RMF,3RNI,3ROY,3RPO,3RPR,3RPV,3RPY,3RZB,3S00,3S0O,3S1H,3S2P,3SQQ,3SW4,3SW7,3TI1,3TIY,3TIZ,3TNW,3ULI,3UNJ,3UNK,3WBL,4ACM,4BCK,4BCM,4BCN,4BCO,4BCP,4BCQ,4BGH,4BZD,4CFM,4CFN,4CFU,4CFV,4CFW,4CFX,4D1X,4D1Z,4EK3,4EK4,4EK5,4EK6,4EK8,4EOQ,4EOR,4EOS,4ERW,4EZ3,4EZ7,4FKG,4FKI,4FKJ,4FKL,4FKO,4FKP,4FKQ,4FKR,4FKS,4FKT,4FKU,4FKV,4FKW,4FX3,4GCJ,4I3Z,4II5,4KD1,4LYN,4NJ3,4RJ3,5A14,5AND,5ANE,5ANG,5ANI,5ANJ,5ANK,5ANO,5CYI,5D1J,5FP5,5FP6,5IEV,5IEX,5IEY,5IF1,5JQ5,5JQ8,5K4J,5L2W,5LMK,5MHQ,5NEV,5OO0,5OSJ,5UQ1,5UQ2,5UQ3,6ATH,6GUB,6GUC,6GUE,6GUF,6GUH,6GUK,6GVA,6INL,6JGM,6OQI,6P3W,6Q3B,6Q3C,6Q3F,6Q48,6Q49,6Q4A,6Q4B,6Q4C,6Q4D,6Q4E,6Q4F,6Q4H,6Q4J,6Q4K,6RIJ,6SG4,7ACK,7B5L,7B5R,7B7S,7E34,7KJS,7M2F,7NVQ

> <UniProt (SwissProt) Recommended Name of Target Chain>
Cyclin-dependent kinase 2

> <UniProt (SwissProt) Entry Name of Target Chain>
CDK2_HUMAN

> <UniProt (SwissProt) Primary ID of Target Chain>
P24941

> <UniProt (SwissProt) Secondary ID(s) of Target Chain>
A8K7C6,O75100

> <UniProt (SwissProt) Alternative ID(s) of Target Chain>


> <UniProt (TrEMBL) Submitted Name of Target Chain>


> <UniProt (TrEMBL) Entry Name of Target Chain>


> <UniProt (TrEMBL) Primary ID of Target Chain>
A0A024RB77

> <UniProt (TrEMBL) Secondary ID(s) of Target Chain>


> <UniProt (TrEMBL) Alternative ID(s) of Target Chain>


$$$$
BindingDB_50276015_mol_1

Vconf v2.0 Academic SN VC001-00000579
 34 36  0  0  0  0  0  0  0  0999 V2000
   13.8270   -3.9850    0.1510 C   0  0  0  0  0  0  0  0  0  0  0
   13.7940   -5.2470    0.7740 C   0  0  0  0  0  0  0  0  0  0  0
   15.0070   -5.8270    1.2050 C   0  0  0  0  0  0  0  0  0  0  0
   16.2290   -5.1470    1.0470 C   0  0  0  0  0  0  0  0  0  0  0
   16.2390   -3.8790    0.4340 C   0  0  0  0  0  0  0  0  0  0  0
   15.0420   -3.2930   -0.0200 C   0  0  0  0  0  0  0  0  0  0  0
   12.5860   -5.8600    0.8840 N   0  0  0  0  0  0  0  0  0  0  0
   12.1500   -6.6230    1.9150 C   0  0  0  0  0  0  0  0  0  0  0
   10.9010   -7.1380    1.8390 N   0  0  0  0  0  0  0  0  0  0  0
   10.3810   -7.9060    2.8260 C   0  0  0  0  0  0  0  0  0  0  0
   11.1390   -8.1870    3.9690 C   0  0  0  0  0  0  0  0  0  0  0
   12.4360   -7.6490    4.0450 C   0  0  0  0  0  0  0  0  0  0  0
   12.8920   -6.8860    3.0200 N   0  0  0  0  0  0  0  0  0  0  0
   13.2830   -7.8730    5.1420 C   0  0  0  0  0  0  0  0  0  0  0
   14.8800   -7.1970    5.2000 S   0  0  0  0  0  0  0  0  0  0  0
   15.0500   -7.9680    6.7380 C   0  0  0  0  0  0  0  0  0  0  0
   13.9220   -8.6770    7.1190 C   0  0  0  0  0  0  0  0  0  0  0
   12.9410   -8.6130    6.2120 N   0  0  0  0  0  0  0  0  0  0  0
   15.0410   -1.9730   -0.6690 C   0  0  0  0  0  0  0  0  0  0  0
   17.4740   -5.7720    1.5200 C   0  0  0  0  0  0  0  0  0  0  0
   12.9590   -3.5620   -0.1800 H   0  0  0  0  0  0  0  0  0  0  0
   15.0050   -6.7540    1.6330 H   0  0  0  0  0  0  0  0  0  0  0
   17.1220   -3.3820    0.3150 H   0  0  0  0  0  0  0  0  0  0  0
   11.9490   -5.6990    0.1710 H   0  0  0  0  0  0  0  0  0  0  0
    9.4350   -8.2790    2.7350 H   0  0  0  0  0  0  0  0  0  0  0
   10.7550   -8.7660    4.7170 H   0  0  0  0  0  0  0  0  0  0  0
   15.8950   -7.9060    7.3070 H   0  0  0  0  0  0  0  0  0  0  0
   13.8480   -9.1930    7.9960 H   0  0  0  0  0  0  0  0  0  0  0
   16.0510   -1.5630   -0.7320 H   0  0  0  0  0  0  0  0  0  0  0
   14.6380   -2.0630   -1.6790 H   0  0  0  0  0  0  0  0  0  0  0
   14.4190   -1.2840   -0.0960 H   0  0  0  0  0  0  0  0  0  0  0
   18.3350   -5.1280    1.3340 H   0  0  0  0  0  0  0  0  0  0  0
   17.4030   -5.9590    2.5920 H   0  0  0  0  0  0  0  0  0  0  0
   17.6280   -6.7200    1.0020 H   0  0  0  0  0  0  0  0  0  0  0
  1  2  1  0  0  0  0
  1  6  2  0  0  0  0
  1 21  1  0  0  0  0
  2  3  2  0  0  0  0
  2  7  1  0  0  0  0
  3  4  1  0  0  0  0
  3 22  1  0  0  0  0
  4  5  2  0  0  0  0
  4 20  1  0  0  0  0
  5  6  1  0  0  0  0
  5 23  1  0  0  0  0
  6 19  1  0  0  0  0
  7  8  1  0  0  0  0
  7 24  1  0  0  0  0
  8  9  1  0  0  0  0
  8 13  2  0  0  0  0
  9 10  2  0  0  0  0
 10 11  1  0  0  0  0
 10 25  1  0  0  0  0
 11 12  2  0  0  0  0
 11 26  1  0  0  0  0
 12 13  1  0  0  0  0
 12 14  1  0  0  0  0
 14 15  1  0  0  0  0
 14 18  2  0  0  0  0
 15 16  1  0  0  0  0
 16 17  2  0  0  0  0
 16 27  1  0  0  0  0
 17 18  1  0  0  0  0
 17 28  1  0  0  0  0
 19 29  1  0  0  0  0
 19 30  1  0  0  0  0
 19 31  1  0  0  0  0
 20 32  1  0  0  0  0
 20 33  1  0  0  0  0
 20 34  1  0  0  0  0
M  END
> <From>
www.bindingDB.org

> <BindingDB Reactant_set_id>
50436583

> <Ligand InChI>
InChI=1S/C15H14N4S/c1-10-7-11(2)9-12(8-10)18-15-17-4-3-13(19-15)14-16-5-6-20-14/h3-9H,1-2H3,(H,17,18,19)

> <Ligand InChI Key>
GVWNNKNAVOPJNV-UHFFFAOYSA-N

> <BindingDB MonomerID>
50276015

> <BindingDB Ligand Name>
CHEMBL509161::N-(3,5-dimethylphenyl)-4-(thiazol-2-yl)pyrimidin-2-amine

> <Target Name Assigned by Curator or DataSource>
Cyclin-dependent kinase 2

> <Target Source Organism According to Curator or DataSource>
Homo sapiens

> <Ki (nM)>
>5000

> <IC50 (nM)>


> <Kd (nM)>


> <EC50 (nM)>


> <kon (M-1-s-1)>


> <koff (s-1)>


> <pH>


> <Temp C>


> <Curation/DataSource>
ChEMBL

> <Article DOI>
10.1016/j.bmcl.2008.09.106

> <PMID>
18938080

> <PubChem AID>


> <Patent Number>


> <Authors>
Farmer, LJ; Bemis, G; Britt, SD; Cochran, J; Connors, M; Harrington, EM; Hoock, T; Markland, W; Nanthakumar, S; Taslimi, P; Ter Haar, E; Wang, J; Zhaveri, D; Salituro, FG

> <Institution>
Vertex Pharmaceuticals Inc

> <Link to Ligand in BindingDB>
http://www.bindingdb.org/bind/chemsearch/marvin/MolStructure.jsp?monomerid=50276015

> <Link to Ligand-Target Pair in BindingDB>
http://www.bindingdb.org/jsp/dbsearch/PrimarySearch_ki.jsp?energyterm=kJ/mole&tag=pol&polymerid=796&target=Cyclin-dependent+kinase+2&column=ki&startPg=0&Increment=50&submit=Search

> <Link to Ligand-Target Pair in BindingDB>
http://www.bindingdb.org/jsp/dbsearch/PrimarySearch_ki.jsp?energyterm=kJ/mole&tag=r21&monomerid=50276015&enzyme=Cyclin-dependent+kinase+2&column=ki&startPg=0&Increment=50&submit=Search

> <Ligand HET ID in PDB>


> <PDB ID(s) for Ligand-Target Complex>


> <PubChem CID>
9856983

> <PubChem SID>
104119351

> <ChEBI ID of Ligand>


> <ChEMBL ID of Ligand>
CHEMBL509161

> <DrugBank ID of Ligand>


> <IUPHAR_GRAC ID of Ligand>


> <KEGG ID of Ligand>


> <ZINC ID of Ligand>
ZINC01489318

> <Number of Protein Chains in Target (bigger than 1 implies a multichain complex)>
1

> <BindingDB Target Chain Sequence>
MENFQKVEKIGEGTYGVVYKARNKLTGEVVALKKIRLDTETEGVPSTAIREISLLKELNHPNIVKLLDVIHTENKLYLVFEFLHQDLKKFMDASALTGIPLPLIKSYLFQLLQGLAFCHSHRVLHRDLKPQNLLINTEGAIKLADFGLARAFGVPVRTYTHEVVTLWYRAPEILLGCKYYSTAVDIWSLGCIFAEMVTRRALFPGDSEIDQLFRIFRTLGTPDEVVWPGVTSMPDYKPSFPKWARQDFSKVVPPLDEDGRSLLSQMLHYDPNKRISAKAALAHPFFQDVTKPVPHLRL

> <PDB ID(s) of Target Chain>
1CKP,1DI8,1DM2,1E1V,1E1X,1E9H,1F5Q,1FIN,1FQ1,1FVT,1FVV,1G5S,1GIH,1GY3,1GZ8,1H00,1H01,1H07,1H08,1H0V,1H0W,1H1P,1H1Q,1H1R,1H1S,1H24,1H25,1H26,1H27,1H28,1HCK,1HCL,1JST,1JSU,1JSV,1JVP,1KE5,1KE6,1KE7,1KE8,1KE9,1OGU,1OI9,1OIQ,1OIR,1OIU,1OIY,1OKV,1OKW,1OL1,1OL2,1P2A,1P5E,1PF8,1PKD,1PW2,1PXI,1PXJ,1PXK,1PXL,1PXM,1PXN,1PXO,1PXP,1PYE,1QMZ,1R78,1URC,1URW,1V1K,1VYW,1VYZ,1W0X,1W8C,1W98,1WCC,1Y8Y,1Y91,1YKR,2A0C,2A4L,2B52,2B53,2B54,2B55,2BHE,2BHH,2BKZ,2BPM,2BTR,2BTS,2C4G,2C5N,2C5O,2C5V,2C5X,2C5Y,2C68,2C69,2C6I,2C6K,2C6L,2C6M,2C6O,2C6T,2CCH,2CCI,2CJM,2CLX,2DUV,2EXM,2FVD,2G9X,2I40,2J9M,2JGZ,2R3F,2R3G,2R3H,2R3I,2R3J,2R3K,2R3L,2R3M,2R3N,2R3O,2R3P,2R3Q,2R3R,2R64,2UUE,2UZB,2UZD,2UZE,2UZL,2UZN,2UZO,2V0D,2V22,2VTA,2VTH,2VTI,2VTJ,2VTL,2VTM,2VTN,2VTO,2VTP,2VTQ,2VTR,2VTS,2VTT,2VU3,2VV9,2W05,2W06,2W17,2W1H,2WEV,2WFY,2WHB,2WIH,2WIP,2WMA,2WMB,2WPA,2WXV,2X1N,2XMY,2XNB,3BHT,3BHU,3BHV,3DDP,3DDQ,3DOG,3EID,3EJ1,3EOC,3EZR,3EZV,3F5X,3FZ1,3IG7,3IGG,3LE6,3LFN,3LFQ,3LFS,3MY5,3NS9,3PJ8,3PXF,3PXQ,3PXR,3PXY,3PXZ,3PY0,3PY1,3QHR,3QHW,3QL8,3QQF,3QQG,3QQH,3QQJ,3QQK,3QQL,3QRT,3QRU,3QTQ,3QTR,3QTS,3QTU,3QTW,3QTX,3QTZ,3QU0,3QWJ,3QWK,3QX2,3QX4,3QXO,3QXP,3QZF,3QZG,3QZH,3QZI,3R1Q,3R1S,3R1Y,3R28,3R6X,3R71,3R73,3R7E,3R7I,3R7U,3R7V,3R7Y,3R83,3R8L,3R8M,3R8P,3R8U,3R8V,3R8Z,3R9D,3R9H,3R9N,3R9O,3RAH,3RAI,3RAK,3RAL,3RJC,3RK5,3RK7,3RK9,3RKB,3RM6,3RM7,3RMF,3RNI,3ROY,3RPO,3RPR,3RPV,3RPY,3RZB,3S00,3S0O,3S1H,3S2P,3SQQ,3SW4,3SW7,3TI1,3TIY,3TIZ,3TNW,3ULI,3UNJ,3UNK,3WBL,4ACM,4BCK,4BCM,4BCN,4BCO,4BCP,4BCQ,4BGH,4BZD,4CFM,4CFN,4CFU,4CFV,4CFW,4CFX,4D1X,4D1Z,4EK3,4EK4,4EK5,4EK6,4EK8,4EOQ,4EOR,4EOS,4ERW,4EZ3,4EZ7,4FKG,4FKI,4FKJ,4FKL,4FKO,4FKP,4FKQ,4FKR,4FKS,4FKT,4FKU,4FKV,4FKW,4FX3,4GCJ,4I3Z,4II5,4KD1,4LYN,4NJ3,4RJ3,5A14,5AND,5ANE,5ANG,5ANI,5ANJ,5ANK,5ANO,5CYI,5D1J,5FP5,5FP6,5IEV,5IEX,5IEY,5IF1,5JQ5,5JQ8,5K4J,5L2W,5LMK,5MHQ,5NEV,5OO0,5OSJ,5UQ1,5UQ2,5UQ3,6ATH,6GUB,6GUC,6GUE,6GUF,6GUH,6GUK,6GVA,6INL,6JGM,6OQI,6P3W,6Q3B,6Q3C,6Q3F,6Q48,6Q49,6Q4A,6Q4B,6Q4C,6Q4D,6Q4E,6Q4F,6Q4H,6Q4J,6Q4K,6RIJ,6SG4,7ACK,7B5L,7B5R,7B7S,7E34,7KJS,7M2F,7NVQ

> <UniProt (SwissProt) Recommended Name of Target Chain>
Cyclin-dependent kinase 2

> <UniProt (SwissProt) Entry Name of Target Chain>
CDK2_HUMAN

> <UniProt (SwissProt) Primary ID of Target Chain>
P24941

> <UniProt (SwissProt) Secondary ID(s) of Target Chain>
A8K7C6,O75100

> <UniProt (SwissProt) Alternative ID(s) of Target Chain>


> <UniProt (TrEMBL) Submitted Name of Target Chain>


> <UniProt (TrEMBL) Entry Name of Target Chain>


> <UniProt (TrEMBL) Primary ID of Target Chain>
A0A024RB77

> <UniProt (TrEMBL) Secondary ID(s) of Target Chain>


> <UniProt (TrEMBL) Alternative ID(s) of Target Chain>


$$$$
BindingDB_50444937_mol_1

Vconf v2.0 Academic SN VC001-00000579
 57 60  0  0  0  0  0  0  0  0999 V2000
   11.8220   -5.4450    0.4560 C   0  0  0  0  0  0  0  0  0  0  0
   11.7460   -6.6560   -0.2700 C   0  0  0  0  0  0  0  0  0  0  0
   12.1530   -7.8720    0.2990 C   0  0  0  0  0  0  0  0  0  0  0
   12.3160   -5.4990    1.7830 C   0  0  0  0  0  0  0  0  0  0  0
   12.7250   -6.7140    2.3820 C   0  0  0  0  0  0  0  0  0  0  0
   12.6450   -7.9020    1.6120 C   0  0  0  0  0  0  0  0  0  0  0
   13.0530   -9.0820    2.1370 N   0  0  0  0  0  0  0  0  0  0  0
   13.5500   -9.2140    3.3930 C   0  0  0  0  0  0  0  0  0  0  0
   13.6410   -8.0650    4.2010 C   0  0  0  0  0  0  0  0  0  0  0
   13.2250   -6.8110    3.7070 C   0  0  0  0  0  0  0  0  0  0  0
   11.4190   -4.2080   -0.1340 C   0  0  0  0  0  0  0  0  0  0  0
   13.3260   -5.7270    4.5550 C   0  0  0  0  0  0  0  0  0  0  0
   12.3860   -4.9700    4.7370 O   0  0  0  0  0  0  0  0  0  0  0
   14.4280   -5.5140    5.2520 O   0  0  0  0  0  0  0  0  0  0  0
   13.9560  -10.4870    3.8420 C   0  0  0  0  0  0  0  0  0  0  0
   13.8420  -11.5470    3.0100 N   0  0  0  0  0  0  0  0  0  0  0
   14.4110  -10.6490    4.9980 O   0  0  0  0  0  0  0  0  0  0  0
   14.2120  -12.8840    3.3420 C   0  0  2  0  0  0  0  0  0  0  0
   15.1670  -13.3500    2.3690 C   0  0  0  0  0  0  0  0  0  0  0
   12.9620  -13.7930    3.3280 C   0  0  0  0  0  0  0  0  0  0  0
   11.9610  -13.3970    4.3410 C   0  0  0  0  0  0  0  0  0  0  0
   14.8280  -13.3570    1.0790 O   0  0  0  0  0  0  0  0  0  0  0
   16.2690  -13.7300    2.7390 O   0  0  0  0  0  0  0  0  0  0  0
   15.7760  -13.7890    0.1030 C   0  0  0  0  0  0  0  0  0  0  0
   10.6960  -12.9120    3.9510 C   0  0  0  0  0  0  0  0  0  0  0
    9.7500  -12.5300    4.9170 C   0  0  0  0  0  0  0  0  0  0  0
   10.0590  -12.6310    6.2840 C   0  0  0  0  0  0  0  0  0  0  0
   11.3170  -13.1150    6.6830 C   0  0  0  0  0  0  0  0  0  0  0
   12.2620  -13.4970    5.7150 C   0  0  0  0  0  0  0  0  0  0  0
    9.1450  -12.2610    7.2080 O   0  0  0  0  0  0  0  0  0  0  0
   12.0900   -2.9970    0.1690 C   0  0  0  0  0  0  0  0  0  0  0
   11.6970   -1.7810   -0.4150 C   0  0  0  0  0  0  0  0  0  0  0
   10.6220   -1.7480   -1.3160 C   0  0  0  0  0  0  0  0  0  0  0
    9.9420   -2.9340   -1.6320 C   0  0  0  0  0  0  0  0  0  0  0
   10.3360   -4.1490   -1.0460 C   0  0  0  0  0  0  0  0  0  0  0
   11.4070   -6.6620   -1.2330 H   0  0  0  0  0  0  0  0  0  0  0
   12.0970   -8.7320   -0.2480 H   0  0  0  0  0  0  0  0  0  0  0
   12.3710   -4.6360    2.3250 H   0  0  0  0  0  0  0  0  0  0  0
   14.0060   -8.1410    5.1540 H   0  0  0  0  0  0  0  0  0  0  0
   14.3720   -4.7340    5.8420 H   0  0  0  0  0  0  0  0  0  0  0
   13.4770  -11.3850    2.1260 H   0  0  0  0  0  0  0  0  0  0  0
   14.6740  -12.9350    4.3310 H   0  0  0  0  0  0  0  0  0  0  0
   12.5190  -13.7580    2.3290 H   0  0  0  0  0  0  0  0  0  0  0
   13.2660  -14.8220    3.5230 H   0  0  0  0  0  0  0  0  0  0  0
   15.3240  -13.7230   -0.8870 H   0  0  0  0  0  0  0  0  0  0  0
   16.6610  -13.1510    0.1340 H   0  0  0  0  0  0  0  0  0  0  0
   16.0660  -14.8230    0.2950 H   0  0  0  0  0  0  0  0  0  0  0
   10.4620  -12.8320    2.9610 H   0  0  0  0  0  0  0  0  0  0  0
    8.8370  -12.1780    4.6260 H   0  0  0  0  0  0  0  0  0  0  0
   11.5470  -13.1900    7.6740 H   0  0  0  0  0  0  0  0  0  0  0
   13.1740  -13.8470    6.0140 H   0  0  0  0  0  0  0  0  0  0  0
    9.4380  -12.3650    8.1370 H   0  0  0  0  0  0  0  0  0  0  0
   12.8840   -2.9910    0.8100 H   0  0  0  0  0  0  0  0  0  0  0
   12.1960   -0.9200   -0.1860 H   0  0  0  0  0  0  0  0  0  0  0
   10.3370   -0.8660   -1.7400 H   0  0  0  0  0  0  0  0  0  0  0
    9.1580   -2.9130   -2.2860 H   0  0  0  0  0  0  0  0  0  0  0
    9.8150   -4.9930   -1.2870 H   0  0  0  0  0  0  0  0  0  0  0
  1  2  2  0  0  0  0
  1  4  1  0  0  0  0
  1 11  1  0  0  0  0
  2  3  1  0  0  0  0
  2 36  1  0  0  0  0
  3  6  2  0  0  0  0
  3 37  1  0  0  0  0
  4  5  2  0  0  0  0
  4 38  1  0  0  0  0
  5  6  1  0  0  0  0
  5 10  1  0  0  0  0
  6  7  1  0  0  0  0
  7  8  2  0  0  0  0
  8  9  1  0  0  0  0
  8 15  1  0  0  0  0
  9 10  2  0  0  0  0
  9 39  1  0  0  0  0
 10 12  1  0  0  0  0
 11 31  2  0  0  0  0
 11 35  1  0  0  0  0
 12 13  2  0  0  0  0
 12 14  1  0  0  0  0
 14 40  1  0  0  0  0
 15 16  1  0  0  0  0
 15 17  2  0  0  0  0
 18 16  1  1  0  0  0
 16 41  1  0  0  0  0
 18 19  1  0  0  0  0
 18 20  1  0  0  0  0
 18 42  1  0  0  0  0
 19 22  1  0  0  0  0
 19 23  2  0  0  0  0
 20 21  1  0  0  0  0
 20 43  1  0  0  0  0
 20 44  1  0  0  0  0
 21 25  2  0  0  0  0
 21 29  1  0  0  0  0
 22 24  1  0  0  0  0
 24 45  1  0  0  0  0
 24 46  1  0  0  0  0
 24 47  1  0  0  0  0
 25 26  1  0  0  0  0
 25 48  1  0  0  0  0
 26 27  2  0  0  0  0
 26 49  1  0  0  0  0
 27 28  1  0  0  0  0
 27 30  1  0  0  0  0
 28 29  2  0  0  0  0
 28 50  1  0  0  0  0
 29 51  1  0  0  0  0
 30 52  1  0  0  0  0
 31 32  1  0  0  0  0
 31 53  1  0  0  0  0
 32 33  2  0  0  0  0
 32 54  1  0  0  0  0
 33 34  1  0  0  0  0
 33 55  1  0  0  0  0
 34 35  2  0  0  0  0
 34 56  1  0  0  0  0
 35 57  1  0  0  0  0
M  END
> <From>
www.bindingDB.org

> <BindingDB Reactant_set_id>
50077206

> <Ligand InChI>
InChI=1S/C27H22N2O6/c1-35-27(34)24(13-16-7-10-19(30)11-8-16)29-25(31)23-15-21(26(32)33)20-14-18(9-12-22(20)28-23)17-5-3-2-4-6-17/h2-12,14-15,24,30H,13H2,1H3,(H,29,31)(H,32,33)/t24-/m0/s1

> <Ligand InChI Key>
KRNJRDXXCPGUCY-DEOSSOPVSA-N

> <BindingDB MonomerID>
50444937

> <BindingDB Ligand Name>
CHEMBL3099759

> <Target Name Assigned by Curator or DataSource>
Cyclin-dependent kinase 2

> <Target Source Organism According to Curator or DataSource>
Homo sapiens

> <Ki (nM)>
 10000

> <IC50 (nM)>


> <Kd (nM)>


> <EC50 (nM)>


> <kon (M-1-s-1)>


> <koff (s-1)>


> <pH>


> <Temp C>


> <Curation/DataSource>
ChEMBL

> <Article DOI>
10.1016/j.bmcl.2013.11.041

> <PMID>
24332088

> <PubChem AID>


> <Patent Number>


> <Authors>
Deng, Y; Shipps, GW; Zhao, L; Siddiqui, MA; Popovici-Muller, J; Curran, PJ; Duca, JS; Hruza, AW; Fischmann, TO; Madison, VS; Zhang, R; McNemar, CW; Mayhood, TW; Syto, R; Annis, A; Kirschmeier, P; Lees, EM; Parry, DA; Windsor, WT

> <Institution>
Merck Research Laboratories

> <Link to Ligand in BindingDB>
http://www.bindingdb.org/bind/chemsearch/marvin/MolStructure.jsp?monomerid=50444937

> <Link to Ligand-Target Pair in BindingDB>
http://www.bindingdb.org/jsp/dbsearch/PrimarySearch_ki.jsp?energyterm=kJ/mole&tag=pol&polymerid=796&target=Cyclin-dependent+kinase+2&column=ki&startPg=0&Increment=50&submit=Search

> <Link to Ligand-Target Pair in BindingDB>
http://www.bindingdb.org/jsp/dbsearch/PrimarySearch_ki.jsp?energyterm=kJ/mole&tag=r21&monomerid=50444937&enzyme=Cyclin-dependent+kinase+2&column=ki&startPg=0&Increment=50&submit=Search

> <Ligand HET ID in PDB>


> <PDB ID(s) for Ligand-Target Complex>


> <PubChem CID>
25026775

> <PubChem SID>
194942833

> <ChEBI ID of Ligand>


> <ChEMBL ID of Ligand>
CHEMBL3099759

> <DrugBank ID of Ligand>


> <IUPHAR_GRAC ID of Ligand>


> <KEGG ID of Ligand>


> <ZINC ID of Ligand>


> <Number of Protein Chains in Target (bigger than 1 implies a multichain complex)>
1

> <BindingDB Target Chain Sequence>
MENFQKVEKIGEGTYGVVYKARNKLTGEVVALKKIRLDTETEGVPSTAIREISLLKELNHPNIVKLLDVIHTENKLYLVFEFLHQDLKKFMDASALTGIPLPLIKSYLFQLLQGLAFCHSHRVLHRDLKPQNLLINTEGAIKLADFGLARAFGVPVRTYTHEVVTLWYRAPEILLGCKYYSTAVDIWSLGCIFAEMVTRRALFPGDSEIDQLFRIFRTLGTPDEVVWPGVTSMPDYKPSFPKWARQDFSKVVPPLDEDGRSLLSQMLHYDPNKRISAKAALAHPFFQDVTKPVPHLRL

> <PDB ID(s) of Target Chain>
1CKP,1DI8,1DM2,1E1V,1E1X,1E9H,1F5Q,1FIN,1FQ1,1FVT,1FVV,1G5S,1GIH,1GY3,1GZ8,1H00,1H01,1H07,1H08,1H0V,1H0W,1H1P,1H1Q,1H1R,1H1S,1H24,1H25,1H26,1H27,1H28,1HCK,1HCL,1JST,1JSU,1JSV,1JVP,1KE5,1KE6,1KE7,1KE8,1KE9,1OGU,1OI9,1OIQ,1OIR,1OIU,1OIY,1OKV,1OKW,1OL1,1OL2,1P2A,1P5E,1PF8,1PKD,1PW2,1PXI,1PXJ,1PXK,1PXL,1PXM,1PXN,1PXO,1PXP,1PYE,1QMZ,1R78,1URC,1URW,1V1K,1VYW,1VYZ,1W0X,1W8C,1W98,1WCC,1Y8Y,1Y91,1YKR,2A0C,2A4L,2B52,2B53,2B54,2B55,2BHE,2BHH,2BKZ,2BPM,2BTR,2BTS,2C4G,2C5N,2C5O,2C5V,2C5X,2C5Y,2C68,2C69,2C6I,2C6K,2C6L,2C6M,2C6O,2C6T,2CCH,2CCI,2CJM,2CLX,2DUV,2EXM,2FVD,2G9X,2I40,2J9M,2JGZ,2R3F,2R3G,2R3H,2R3I,2R3J,2R3K,2R3L,2R3M,2R3N,2R3O,2R3P,2R3Q,2R3R,2R64,2UUE,2UZB,2UZD,2UZE,2UZL,2UZN,2UZO,2V0D,2V22,2VTA,2VTH,2VTI,2VTJ,2VTL,2VTM,2VTN,2VTO,2VTP,2VTQ,2VTR,2VTS,2VTT,2VU3,2VV9,2W05,2W06,2W17,2W1H,2WEV,2WFY,2WHB,2WIH,2WIP,2WMA,2WMB,2WPA,2WXV,2X1N,2XMY,2XNB,3BHT,3BHU,3BHV,3DDP,3DDQ,3DOG,3EID,3EJ1,3EOC,3EZR,3EZV,3F5X,3FZ1,3IG7,3IGG,3LE6,3LFN,3LFQ,3LFS,3MY5,3NS9,3PJ8,3PXF,3PXQ,3PXR,3PXY,3PXZ,3PY0,3PY1,3QHR,3QHW,3QL8,3QQF,3QQG,3QQH,3QQJ,3QQK,3QQL,3QRT,3QRU,3QTQ,3QTR,3QTS,3QTU,3QTW,3QTX,3QTZ,3QU0,3QWJ,3QWK,3QX2,3QX4,3QXO,3QXP,3QZF,3QZG,3QZH,3QZI,3R1Q,3R1S,3R1Y,3R28,3R6X,3R71,3R73,3R7E,3R7I,3R7U,3R7V,3R7Y,3R83,3R8L,3R8M,3R8P,3R8U,3R8V,3R8Z,3R9D,3R9H,3R9N,3R9O,3RAH,3RAI,3RAK,3RAL,3RJC,3RK5,3RK7,3RK9,3RKB,3RM6,3RM7,3RMF,3RNI,3ROY,3RPO,3RPR,3RPV,3RPY,3RZB,3S00,3S0O,3S1H,3S2P,3SQQ,3SW4,3SW7,3TI1,3TIY,3TIZ,3TNW,3ULI,3UNJ,3UNK,3WBL,4ACM,4BCK,4BCM,4BCN,4BCO,4BCP,4BCQ,4BGH,4BZD,4CFM,4CFN,4CFU,4CFV,4CFW,4CFX,4D1X,4D1Z,4EK3,4EK4,4EK5,4EK6,4EK8,4EOQ,4EOR,4EOS,4ERW,4EZ3,4EZ7,4FKG,4FKI,4FKJ,4FKL,4FKO,4FKP,4FKQ,4FKR,4FKS,4FKT,4FKU,4FKV,4FKW,4FX3,4GCJ,4I3Z,4II5,4KD1,4LYN,4NJ3,4RJ3,5A14,5AND,5ANE,5ANG,5ANI,5ANJ,5ANK,5ANO,5CYI,5D1J,5FP5,5FP6,5IEV,5IEX,5IEY,5IF1,5JQ5,5JQ8,5K4J,5L2W,5LMK,5MHQ,5NEV,5OO0,5OSJ,5UQ1,5UQ2,5UQ3,6ATH,6GUB,6GUC,6GUE,6GUF,6GUH,6GUK,6GVA,6INL,6JGM,6OQI,6P3W,6Q3B,6Q3C,6Q3F,6Q48,6Q49,6Q4A,6Q4B,6Q4C,6Q4D,6Q4E,6Q4F,6Q4H,6Q4J,6Q4K,6RIJ,6SG4,7ACK,7B5L,7B5R,7B7S,7E34,7KJS,7M2F,7NVQ

> <UniProt (SwissProt) Recommended Name of Target Chain>
Cyclin-dependent kinase 2

> <UniProt (SwissProt) Entry Name of Target Chain>
CDK2_HUMAN

> <UniProt (SwissProt) Primary ID of Target Chain>
P24941

> <UniProt (SwissProt) Secondary ID(s) of Target Chain>
A8K7C6,O75100

> <UniProt (SwissProt) Alternative ID(s) of Target Chain>


> <UniProt (TrEMBL) Submitted Name of Target Chain>


> <UniProt (TrEMBL) Entry Name of Target Chain>


> <UniProt (TrEMBL) Primary ID of Target Chain>
A0A024RB77

> <UniProt (TrEMBL) Secondary ID(s) of Target Chain>


> <UniProt (TrEMBL) Alternative ID(s) of Target Chain>


$$$$
BindingDB_50444924_mol_1

Vconf v2.0 Academic SN VC001-00000579
 57 60  0  0  0  0  0  0  0  0999 V2000
    4.1010   -9.1980    0.4070 C   0  0  0  0  0  0  0  0  0  0  0
    4.1830  -10.4330   -0.2790 C   0  0  0  0  0  0  0  0  0  0  0
    4.7400  -11.5670    0.3310 C   0  0  0  0  0  0  0  0  0  0  0
    4.6060   -9.1410    1.7290 C   0  0  0  0  0  0  0  0  0  0  0
    5.1790  -10.2680    2.3620 C   0  0  0  0  0  0  0  0  0  0  0
    5.2330  -11.4890    1.6420 C   0  0  0  0  0  0  0  0  0  0  0
    5.7600  -12.5950    2.2190 N   0  0  0  0  0  0  0  0  0  0  0
    6.2560  -12.6210    3.4830 C   0  0  0  0  0  0  0  0  0  0  0
    6.2260  -11.4330    4.2380 C   0  0  0  0  0  0  0  0  0  0  0
    5.6940  -10.2500    3.6840 C   0  0  0  0  0  0  0  0  0  0  0
    3.5260   -8.0480   -0.2150 C   0  0  0  0  0  0  0  0  0  0  0
    5.7070   -9.1110    4.4620 C   0  0  0  0  0  0  0  0  0  0  0
    5.2820   -9.1240    5.6070 O   0  0  0  0  0  0  0  0  0  0  0
    6.2270   -7.9840    4.0110 O   0  0  0  0  0  0  0  0  0  0  0
    6.7880  -13.8220    3.9920 C   0  0  0  0  0  0  0  0  0  0  0
    6.7700  -14.9370    3.2260 N   0  0  0  0  0  0  0  0  0  0  0
    7.2950  -13.8700    5.1370 O   0  0  0  0  0  0  0  0  0  0  0
    7.3000  -16.1950    3.6320 C   0  0  2  0  0  0  0  0  0  0  0
    7.3580  -17.0510    2.4710 C   0  0  0  0  0  0  0  0  0  0  0
    6.4250  -16.8310    4.7410 C   0  0  0  0  0  0  0  0  0  0  0
    6.9760  -18.1080    5.2440 C   0  0  0  0  0  0  0  0  0  0  0
    6.2580  -17.3650    1.8100 O   0  0  0  0  0  0  0  0  0  0  0
    8.4230  -17.5020    2.0800 O   0  0  0  0  0  0  0  0  0  0  0
    6.2910  -19.3210    5.0290 C   0  0  0  0  0  0  0  0  0  0  0
    6.8250  -20.5330    5.5010 C   0  0  0  0  0  0  0  0  0  0  0
    8.0470  -20.5410    6.1950 C   0  0  0  0  0  0  0  0  0  0  0
    8.7330  -19.3350    6.4170 C   0  0  0  0  0  0  0  0  0  0  0
    8.1990  -18.1240    5.9440 C   0  0  0  0  0  0  0  0  0  0  0
    3.6910   -7.8040   -1.5980 C   0  0  0  0  0  0  0  0  0  0  0
    3.1260   -6.6720   -2.2070 C   0  0  0  0  0  0  0  0  0  0  0
    2.3850   -5.7620   -1.4410 C   0  0  0  0  0  0  0  0  0  0  0
    2.1930   -5.9660   -0.0580 C   0  0  0  0  0  0  0  0  0  0  0
    2.7700   -7.1130    0.5340 C   0  0  0  0  0  0  0  0  0  0  0
    1.3980   -4.9800    0.7220 C   0  0  0  0  0  0  0  0  0  0  0
    1.2820   -5.2830    2.0600 F   0  0  0  0  0  0  0  0  0  0  0
    1.9780   -3.7370    0.6440 F   0  0  0  0  0  0  0  0  0  0  0
    0.1230   -4.8980    0.2180 F   0  0  0  0  0  0  0  0  0  0  0
    8.5560  -21.7090    6.6450 O   0  0  0  0  0  0  0  0  0  0  0
    3.8220  -10.5220   -1.2290 H   0  0  0  0  0  0  0  0  0  0  0
    4.7820  -12.4490   -0.1800 H   0  0  0  0  0  0  0  0  0  0  0
    4.5610   -8.2560    2.2360 H   0  0  0  0  0  0  0  0  0  0  0
    6.5960  -11.4260    5.1910 H   0  0  0  0  0  0  0  0  0  0  0
    6.2010   -7.2530    4.6620 H   0  0  0  0  0  0  0  0  0  0  0
    6.3970  -14.8630    2.3330 H   0  0  0  0  0  0  0  0  0  0  0
    8.3160  -16.0430    4.0060 H   0  0  0  0  0  0  0  0  0  0  0
    6.3480  -16.1410    5.5820 H   0  0  0  0  0  0  0  0  0  0  0
    5.4190  -16.9810    4.3440 H   0  0  0  0  0  0  0  0  0  0  0
    6.4160  -17.9590    1.0480 H   0  0  0  0  0  0  0  0  0  0  0
    5.4060  -19.3260    4.5220 H   0  0  0  0  0  0  0  0  0  0  0
    6.3250  -21.4070    5.3380 H   0  0  0  0  0  0  0  0  0  0  0
    9.6200  -19.3360    6.9210 H   0  0  0  0  0  0  0  0  0  0  0
    8.7040  -17.2530    6.1090 H   0  0  0  0  0  0  0  0  0  0  0
    4.2360   -8.4440   -2.1760 H   0  0  0  0  0  0  0  0  0  0  0
    3.2570   -6.5110   -3.2060 H   0  0  0  0  0  0  0  0  0  0  0
    1.9800   -4.9410   -1.8940 H   0  0  0  0  0  0  0  0  0  0  0
    2.6240   -7.2730    1.5310 H   0  0  0  0  0  0  0  0  0  0  0
    9.4120  -21.6270    7.1160 H   0  0  0  0  0  0  0  0  0  0  0
  1  2  2  0  0  0  0
  1  4  1  0  0  0  0
  1 11  1  0  0  0  0
  2  3  1  0  0  0  0
  2 39  1  0  0  0  0
  3  6  2  0  0  0  0
  3 40  1  0  0  0  0
  4  5  2  0  0  0  0
  4 41  1  0  0  0  0
  5  6  1  0  0  0  0
  5 10  1  0  0  0  0
  6  7  1  0  0  0  0
  7  8  2  0  0  0  0
  8  9  1  0  0  0  0
  8 15  1  0  0  0  0
  9 10  2  0  0  0  0
  9 42  1  0  0  0  0
 10 12  1  0  0  0  0
 11 29  2  0  0  0  0
 11 33  1  0  0  0  0
 12 13  2  0  0  0  0
 12 14  1  0  0  0  0
 14 43  1  0  0  0  0
 15 16  1  0  0  0  0
 15 17  2  0  0  0  0
 18 16  1  1  0  0  0
 16 44  1  0  0  0  0
 18 19  1  0  0  0  0
 18 20  1  0  0  0  0
 18 45  1  0  0  0  0
 19 22  1  0  0  0  0
 19 23  2  0  0  0  0
 20 21  1  0  0  0  0
 20 46  1  0  0  0  0
 20 47  1  0  0  0  0
 21 24  2  0  0  0  0
 21 28  1  0  0  0  0
 22 48  1  0  0  0  0
 24 25  1  0  0  0  0
 24 49  1  0  0  0  0
 25 26  2  0  0  0  0
 25 50  1  0  0  0  0
 26 27  1  0  0  0  0
 26 38  1  0  0  0  0
 27 28  2  0  0  0  0
 27 51  1  0  0  0  0
 28 52  1  0  0  0  0
 29 30  1  0  0  0  0
 29 53  1  0  0  0  0
 30 31  2  0  0  0  0
 30 54  1  0  0  0  0
 31 32  1  0  0  0  0
 31 55  1  0  0  0  0
 32 33  2  0  0  0  0
 32 34  1  0  0  0  0
 33 56  1  0  0  0  0
 34 35  1  0  0  0  0
 34 36  1  0  0  0  0
 34 37  1  0  0  0  0
 38 57  1  0  0  0  0
M  END
> <From>
www.bindingDB.org

> <BindingDB Reactant_set_id>
50077184

> <Ligand InChI>
InChI=1S/C27H19F3N2O6/c28-27(29,30)17-3-1-2-15(11-17)16-6-9-21-19(12-16)20(25(35)36)13-22(31-21)24(34)32-23(26(37)38)10-14-4-7-18(33)8-5-14/h1-9,11-13,23,33H,10H2,(H,32,34)(H,35,36)(H,37,38)/t23-/m0/s1

> <Ligand InChI Key>
UKCWILSNXVOZQS-QHCPKHFHSA-N

> <BindingDB MonomerID>
50444924

> <BindingDB Ligand Name>
CHEMBL3099747

> <Target Name Assigned by Curator or DataSource>
Cyclin-dependent kinase 2

> <Target Source Organism According to Curator or DataSource>
Homo sapiens

> <Ki (nM)>
 12000

> <IC50 (nM)>


> <Kd (nM)>


> <EC50 (nM)>


> <kon (M-1-s-1)>


> <koff (s-1)>


> <pH>


> <Temp C>


> <Curation/DataSource>
ChEMBL

> <Article DOI>
10.1016/j.bmcl.2013.11.041

> <PMID>
24332088

> <PubChem AID>


> <Patent Number>


> <Authors>
Deng, Y; Shipps, GW; Zhao, L; Siddiqui, MA; Popovici-Muller, J; Curran, PJ; Duca, JS; Hruza, AW; Fischmann, TO; Madison, VS; Zhang, R; McNemar, CW; Mayhood, TW; Syto, R; Annis, A; Kirschmeier, P; Lees, EM; Parry, DA; Windsor, WT

> <Institution>
Merck Research Laboratories

> <Link to Ligand in BindingDB>
http://www.bindingdb.org/bind/chemsearch/marvin/MolStructure.jsp?monomerid=50444924

> <Link to Ligand-Target Pair in BindingDB>
http://www.bindingdb.org/jsp/dbsearch/PrimarySearch_ki.jsp?energyterm=kJ/mole&tag=pol&polymerid=796&target=Cyclin-dependent+kinase+2&column=ki&startPg=0&Increment=50&submit=Search

> <Link to Ligand-Target Pair in BindingDB>
http://www.bindingdb.org/jsp/dbsearch/PrimarySearch_ki.jsp?energyterm=kJ/mole&tag=r21&monomerid=50444924&enzyme=Cyclin-dependent+kinase+2&column=ki&startPg=0&Increment=50&submit=Search

> <Ligand HET ID in PDB>


> <PDB ID(s) for Ligand-Target Complex>


> <PubChem CID>
72946456

> <PubChem SID>
194942820

> <ChEBI ID of Ligand>


> <ChEMBL ID of Ligand>
CHEMBL3099747

> <DrugBank ID of Ligand>


> <IUPHAR_GRAC ID of Ligand>


> <KEGG ID of Ligand>


> <ZINC ID of Ligand>


> <Number of Protein Chains in Target (bigger than 1 implies a multichain complex)>
1

> <BindingDB Target Chain Sequence>
MENFQKVEKIGEGTYGVVYKARNKLTGEVVALKKIRLDTETEGVPSTAIREISLLKELNHPNIVKLLDVIHTENKLYLVFEFLHQDLKKFMDASALTGIPLPLIKSYLFQLLQGLAFCHSHRVLHRDLKPQNLLINTEGAIKLADFGLARAFGVPVRTYTHEVVTLWYRAPEILLGCKYYSTAVDIWSLGCIFAEMVTRRALFPGDSEIDQLFRIFRTLGTPDEVVWPGVTSMPDYKPSFPKWARQDFSKVVPPLDEDGRSLLSQMLHYDPNKRISAKAALAHPFFQDVTKPVPHLRL

> <PDB ID(s) of Target Chain>
1CKP,1DI8,1DM2,1E1V,1E1X,1E9H,1F5Q,1FIN,1FQ1,1FVT,1FVV,1G5S,1GIH,1GY3,1GZ8,1H00,1H01,1H07,1H08,1H0V,1H0W,1H1P,1H1Q,1H1R,1H1S,1H24,1H25,1H26,1H27,1H28,1HCK,1HCL,1JST,1JSU,1JSV,1JVP,1KE5,1KE6,1KE7,1KE8,1KE9,1OGU,1OI9,1OIQ,1OIR,1OIU,1OIY,1OKV,1OKW,1OL1,1OL2,1P2A,1P5E,1PF8,1PKD,1PW2,1PXI,1PXJ,1PXK,1PXL,1PXM,1PXN,1PXO,1PXP,1PYE,1QMZ,1R78,1URC,1URW,1V1K,1VYW,1VYZ,1W0X,1W8C,1W98,1WCC,1Y8Y,1Y91,1YKR,2A0C,2A4L,2B52,2B53,2B54,2B55,2BHE,2BHH,2BKZ,2BPM,2BTR,2BTS,2C4G,2C5N,2C5O,2C5V,2C5X,2C5Y,2C68,2C69,2C6I,2C6K,2C6L,2C6M,2C6O,2C6T,2CCH,2CCI,2CJM,2CLX,2DUV,2EXM,2FVD,2G9X,2I40,2J9M,2JGZ,2R3F,2R3G,2R3H,2R3I,2R3J,2R3K,2R3L,2R3M,2R3N,2R3O,2R3P,2R3Q,2R3R,2R64,2UUE,2UZB,2UZD,2UZE,2UZL,2UZN,2UZO,2V0D,2V22,2VTA,2VTH,2VTI,2VTJ,2VTL,2VTM,2VTN,2VTO,2VTP,2VTQ,2VTR,2VTS,2VTT,2VU3,2VV9,2W05,2W06,2W17,2W1H,2WEV,2WFY,2WHB,2WIH,2WIP,2WMA,2WMB,2WPA,2WXV,2X1N,2XMY,2XNB,3BHT,3BHU,3BHV,3DDP,3DDQ,3DOG,3EID,3EJ1,3EOC,3EZR,3EZV,3F5X,3FZ1,3IG7,3IGG,3LE6,3LFN,3LFQ,3LFS,3MY5,3NS9,3PJ8,3PXF,3PXQ,3PXR,3PXY,3PXZ,3PY0,3PY1,3QHR,3QHW,3QL8,3QQF,3QQG,3QQH,3QQJ,3QQK,3QQL,3QRT,3QRU,3QTQ,3QTR,3QTS,3QTU,3QTW,3QTX,3QTZ,3QU0,3QWJ,3QWK,3QX2,3QX4,3QXO,3QXP,3QZF,3QZG,3QZH,3QZI,3R1Q,3R1S,3R1Y,3R28,3R6X,3R71,3R73,3R7E,3R7I,3R7U,3R7V,3R7Y,3R83,3R8L,3R8M,3R8P,3R8U,3R8V,3R8Z,3R9D,3R9H,3R9N,3R9O,3RAH,3RAI,3RAK,3RAL,3RJC,3RK5,3RK7,3RK9,3RKB,3RM6,3RM7,3RMF,3RNI,3ROY,3RPO,3RPR,3RPV,3RPY,3RZB,3S00,3S0O,3S1H,3S2P,3SQQ,3SW4,3SW7,3TI1,3TIY,3TIZ,3TNW,3ULI,3UNJ,3UNK,3WBL,4ACM,4BCK,4BCM,4BCN,4BCO,4BCP,4BCQ,4BGH,4BZD,4CFM,4CFN,4CFU,4CFV,4CFW,4CFX,4D1X,4D1Z,4EK3,4EK4,4EK5,4EK6,4EK8,4EOQ,4EOR,4EOS,4ERW,4EZ3,4EZ7,4FKG,4FKI,4FKJ,4FKL,4FKO,4FKP,4FKQ,4FKR,4FKS,4FKT,4FKU,4FKV,4FKW,4FX3,4GCJ,4I3Z,4II5,4KD1,4LYN,4NJ3,4RJ3,5A14,5AND,5ANE,5ANG,5ANI,5ANJ,5ANK,5ANO,5CYI,5D1J,5FP5,5FP6,5IEV,5IEX,5IEY,5IF1,5JQ5,5JQ8,5K4J,5L2W,5LMK,5MHQ,5NEV,5OO0,5OSJ,5UQ1,5UQ2,5UQ3,6ATH,6GUB,6GUC,6GUE,6GUF,6GUH,6GUK,6GVA,6INL,6JGM,6OQI,6P3W,6Q3B,6Q3C,6Q3F,6Q48,6Q49,6Q4A,6Q4B,6Q4C,6Q4D,6Q4E,6Q4F,6Q4H,6Q4J,6Q4K,6RIJ,6SG4,7ACK,7B5L,7B5R,7B7S,7E34,7KJS,7M2F,7NVQ

> <UniProt (SwissProt) Recommended Name of Target Chain>
Cyclin-dependent kinase 2

> <UniProt (SwissProt) Entry Name of Target Chain>
CDK2_HUMAN

> <UniProt (SwissProt) Primary ID of Target Chain>
P24941

> <UniProt (SwissProt) Secondary ID(s) of Target Chain>
A8K7C6,O75100

> <UniProt (SwissProt) Alternative ID(s) of Target Chain>


> <UniProt (TrEMBL) Submitted Name of Target Chain>


> <UniProt (TrEMBL) Entry Name of Target Chain>


> <UniProt (TrEMBL) Primary ID of Target Chain>
A0A024RB77

> <UniProt (TrEMBL) Secondary ID(s) of Target Chain>


> <UniProt (TrEMBL) Alternative ID(s) of Target Chain>


$$$$
BindingDB_50297455_mol_1

Vconf v2.0 Academic SN VC001-00000579
 40 43  0  0  0  0  0  0  0  0999 V2000
    6.4280  -11.9600    0.5170 C   0  0  0  0  0  0  0  0  0  0  0
    6.3270  -13.3650    0.6330 C   0  0  0  0  0  0  0  0  0  0  0
    7.5000  -14.1500    0.6640 C   0  0  0  0  0  0  0  0  0  0  0
    7.6860  -11.3330    0.4330 C   0  0  0  0  0  0  0  0  0  0  0
    8.8420  -12.1310    0.4590 C   0  0  0  0  0  0  0  0  0  0  0
    8.7520  -13.5180    0.5710 C   0  0  0  0  0  0  0  0  0  0  0
    9.9920  -14.0450    0.5880 N   0  0  0  0  0  0  0  0  0  0  0
   10.8840  -13.0280    0.5090 C   0  0  0  0  0  0  0  0  0  0  0
   10.2400  -11.7070    0.3980 C   0  0  1  0  0  0  0  0  0  0  0
   10.5190  -11.0690   -0.7960 N   0  0  0  0  0  0  0  0  0  0  0
   11.5840  -10.6580   -1.0380 O   0  0  0  0  0  0  0  0  0  0  0
   12.1250  -13.1860    0.5260 O   0  0  0  0  0  0  0  0  0  0  0
   10.3280  -15.4330    0.6990 C   0  0  0  0  0  0  0  0  0  0  0
   10.0000  -16.1840   -0.5330 C   0  0  0  0  0  0  0  0  0  0  0
    9.4060  -17.5650   -2.9250 C   0  0  0  0  0  0  0  0  0  0  0
   10.3500  -16.5240   -2.9300 C   0  0  0  0  0  0  0  0  0  0  0
   10.6470  -15.8420   -1.7390 C   0  0  0  0  0  0  0  0  0  0  0
    8.7630  -17.9280   -1.7270 C   0  0  0  0  0  0  0  0  0  0  0
    9.0520  -17.2300   -0.5330 C   0  0  0  0  0  0  0  0  0  0  0
    8.4110  -17.5660    0.6250 O   0  0  0  0  0  0  0  0  0  0  0
    7.2160  -18.3490    0.5510 C   0  0  0  0  0  0  0  0  0  0  0
    7.4150  -19.4100   -0.3820 O   0  0  0  0  0  0  0  0  0  0  0
    7.7680  -19.0170   -1.7120 C   0  0  0  0  0  0  0  0  0  0  0
   10.9480  -16.1930   -4.0390 F   0  0  0  0  0  0  0  0  0  0  0
    5.0000  -13.9930    0.7230 C   0  0  0  0  0  0  0  0  0  0  0
    5.5810  -11.3900    0.4970 H   0  0  0  0  0  0  0  0  0  0  0
    7.4400  -15.1640    0.7560 H   0  0  0  0  0  0  0  0  0  0  0
    7.7570  -10.3180    0.3540 H   0  0  0  0  0  0  0  0  0  0  0
   10.4930  -11.0760    1.2510 H   0  0  0  0  0  0  0  0  0  0  0
   11.3990  -15.5480    0.8850 H   0  0  0  0  0  0  0  0  0  0  0
    9.8070  -15.8480    1.5640 H   0  0  0  0  0  0  0  0  0  0  0
    9.1890  -18.0610   -3.7900 H   0  0  0  0  0  0  0  0  0  0  0
   11.3350  -15.0870   -1.7470 H   0  0  0  0  0  0  0  0  0  0  0
    6.9900  -18.7620    1.5340 H   0  0  0  0  0  0  0  0  0  0  0
    6.3820  -17.7240    0.2250 H   0  0  0  0  0  0  0  0  0  0  0
    6.8710  -18.6850   -2.2370 H   0  0  0  0  0  0  0  0  0  0  0
    8.1720  -19.8920   -2.2240 H   0  0  0  0  0  0  0  0  0  0  0
    5.0810  -15.0790    0.8030 H   0  0  0  0  0  0  0  0  0  0  0
    4.4770  -13.6160    1.6040 H   0  0  0  0  0  0  0  0  0  0  0
    4.4190  -13.7510   -0.1680 H   0  0  0  0  0  0  0  0  0  0  0
  1  2  2  0  0  0  0
  1  4  1  0  0  0  0
  1 26  1  0  0  0  0
  2  3  1  0  0  0  0
  2 25  1  0  0  0  0
  3  6  2  0  0  0  0
  3 27  1  0  0  0  0
  4  5  2  0  0  0  0
  4 28  1  0  0  0  0
  5  6  1  0  0  0  0
  5  9  1  0  0  0  0
  6  7  1  0  0  0  0
  7  8  1  0  0  0  0
  7 13  1  0  0  0  0
  8  9  1  0  0  0  0
  8 12  2  0  0  0  0
  9 10  1  0  0  0  0
  9 29  1  0  0  0  0
 10 11  2  0  0  0  0
 13 14  1  0  0  0  0
 13 30  1  0  0  0  0
 13 31  1  0  0  0  0
 14 17  1  0  0  0  0
 14 19  2  0  0  0  0
 15 16  1  0  0  0  0
 15 18  2  0  0  0  0
 15 32  1  0  0  0  0
 16 17  2  0  0  0  0
 16 24  1  0  0  0  0
 17 33  1  0  0  0  0
 18 19  1  0  0  0  0
 18 23  1  0  0  0  0
 19 20  1  0  0  0  0
 20 21  1  0  0  0  0
 21 22  1  0  0  0  0
 21 34  1  0  0  0  0
 21 35  1  0  0  0  0
 22 23  1  0  0  0  0
 23 36  1  0  0  0  0
 23 37  1  0  0  0  0
 25 38  1  0  0  0  0
 25 39  1  0  0  0  0
 25 40  1  0  0  0  0
M  END
> <From>
www.bindingDB.org

> <BindingDB Reactant_set_id>
50516258

> <Ligand InChI>
InChI=1S/C18H15FN2O4/c1-10-2-3-14-15(4-10)21(18(22)16(14)20-23)7-11-5-13(19)6-12-8-24-9-25-17(11)12/h2-6,16H,7-9H2,1H3

> <Ligand InChI Key>
CEFHLBGJHWUOBZ-UHFFFAOYSA-N

> <BindingDB MonomerID>
50297455

> <BindingDB Ligand Name>
1-((6-fluoro-4H-benzo[d][1,3]dioxin-8-yl)methyl)-3-(hydroxyimino)-6-methylindolin-2-one::CHEMBL551140

> <Target Name Assigned by Curator or DataSource>
Cyclin-dependent kinase 2

> <Target Source Organism According to Curator or DataSource>
Homo sapiens

> <Ki (nM)>
>30000

> <IC50 (nM)>


> <Kd (nM)>


> <EC50 (nM)>


> <kon (M-1-s-1)>


> <koff (s-1)>


> <pH>


> <Temp C>


> <Curation/DataSource>
ChEMBL

> <Article DOI>
10.1016/j.bmcl.2009.03.043

> <PMID>
19361991

> <PubChem AID>


> <Patent Number>


> <Authors>
Cao, J; Gao, H; Bemis, G; Salituro, F; Ledeboer, M; Harrington, E; Wilke, S; Taslimi, P; Pazhanisamy, S; Xie, X; Jacobs, M; Green, J

> <Institution>
Vertex Pharmaceuticals Inc

> <Link to Ligand in BindingDB>
http://www.bindingdb.org/bind/chemsearch/marvin/MolStructure.jsp?monomerid=50297455

> <Link to Ligand-Target Pair in BindingDB>
http://www.bindingdb.org/jsp/dbsearch/PrimarySearch_ki.jsp?energyterm=kJ/mole&tag=pol&polymerid=796&target=Cyclin-dependent+kinase+2&column=ki&startPg=0&Increment=50&submit=Search

> <Link to Ligand-Target Pair in BindingDB>
http://www.bindingdb.org/jsp/dbsearch/PrimarySearch_ki.jsp?energyterm=kJ/mole&tag=r21&monomerid=50297455&enzyme=Cyclin-dependent+kinase+2&column=ki&startPg=0&Increment=50&submit=Search

> <Ligand HET ID in PDB>


> <PDB ID(s) for Ligand-Target Complex>


> <PubChem CID>
91934385

> <PubChem SID>
104138986

> <ChEBI ID of Ligand>


> <ChEMBL ID of Ligand>
CHEMBL551140

> <DrugBank ID of Ligand>


> <IUPHAR_GRAC ID of Ligand>


> <KEGG ID of Ligand>


> <ZINC ID of Ligand>
ZINC43021644

> <Number of Protein Chains in Target (bigger than 1 implies a multichain complex)>
1

> <BindingDB Target Chain Sequence>
MENFQKVEKIGEGTYGVVYKARNKLTGEVVALKKIRLDTETEGVPSTAIREISLLKELNHPNIVKLLDVIHTENKLYLVFEFLHQDLKKFMDASALTGIPLPLIKSYLFQLLQGLAFCHSHRVLHRDLKPQNLLINTEGAIKLADFGLARAFGVPVRTYTHEVVTLWYRAPEILLGCKYYSTAVDIWSLGCIFAEMVTRRALFPGDSEIDQLFRIFRTLGTPDEVVWPGVTSMPDYKPSFPKWARQDFSKVVPPLDEDGRSLLSQMLHYDPNKRISAKAALAHPFFQDVTKPVPHLRL

> <PDB ID(s) of Target Chain>
1CKP,1DI8,1DM2,1E1V,1E1X,1E9H,1F5Q,1FIN,1FQ1,1FVT,1FVV,1G5S,1GIH,1GY3,1GZ8,1H00,1H01,1H07,1H08,1H0V,1H0W,1H1P,1H1Q,1H1R,1H1S,1H24,1H25,1H26,1H27,1H28,1HCK,1HCL,1JST,1JSU,1JSV,1JVP,1KE5,1KE6,1KE7,1KE8,1KE9,1OGU,1OI9,1OIQ,1OIR,1OIU,1OIY,1OKV,1OKW,1OL1,1OL2,1P2A,1P5E,1PF8,1PKD,1PW2,1PXI,1PXJ,1PXK,1PXL,1PXM,1PXN,1PXO,1PXP,1PYE,1QMZ,1R78,1URC,1URW,1V1K,1VYW,1VYZ,1W0X,1W8C,1W98,1WCC,1Y8Y,1Y91,1YKR,2A0C,2A4L,2B52,2B53,2B54,2B55,2BHE,2BHH,2BKZ,2BPM,2BTR,2BTS,2C4G,2C5N,2C5O,2C5V,2C5X,2C5Y,2C68,2C69,2C6I,2C6K,2C6L,2C6M,2C6O,2C6T,2CCH,2CCI,2CJM,2CLX,2DUV,2EXM,2FVD,2G9X,2I40,2J9M,2JGZ,2R3F,2R3G,2R3H,2R3I,2R3J,2R3K,2R3L,2R3M,2R3N,2R3O,2R3P,2R3Q,2R3R,2R64,2UUE,2UZB,2UZD,2UZE,2UZL,2UZN,2UZO,2V0D,2V22,2VTA,2VTH,2VTI,2VTJ,2VTL,2VTM,2VTN,2VTO,2VTP,2VTQ,2VTR,2VTS,2VTT,2VU3,2VV9,2W05,2W06,2W17,2W1H,2WEV,2WFY,2WHB,2WIH,2WIP,2WMA,2WMB,2WPA,2WXV,2X1N,2XMY,2XNB,3BHT,3BHU,3BHV,3DDP,3DDQ,3DOG,3EID,3EJ1,3EOC,3EZR,3EZV,3F5X,3FZ1,3IG7,3IGG,3LE6,3LFN,3LFQ,3LFS,3MY5,3NS9,3PJ8,3PXF,3PXQ,3PXR,3PXY,3PXZ,3PY0,3PY1,3QHR,3QHW,3QL8,3QQF,3QQG,3QQH,3QQJ,3QQK,3QQL,3QRT,3QRU,3QTQ,3QTR,3QTS,3QTU,3QTW,3QTX,3QTZ,3QU0,3QWJ,3QWK,3QX2,3QX4,3QXO,3QXP,3QZF,3QZG,3QZH,3QZI,3R1Q,3R1S,3R1Y,3R28,3R6X,3R71,3R73,3R7E,3R7I,3R7U,3R7V,3R7Y,3R83,3R8L,3R8M,3R8P,3R8U,3R8V,3R8Z,3R9D,3R9H,3R9N,3R9O,3RAH,3RAI,3RAK,3RAL,3RJC,3RK5,3RK7,3RK9,3RKB,3RM6,3RM7,3RMF,3RNI,3ROY,3RPO,3RPR,3RPV,3RPY,3RZB,3S00,3S0O,3S1H,3S2P,3SQQ,3SW4,3SW7,3TI1,3TIY,3TIZ,3TNW,3ULI,3UNJ,3UNK,3WBL,4ACM,4BCK,4BCM,4BCN,4BCO,4BCP,4BCQ,4BGH,4BZD,4CFM,4CFN,4CFU,4CFV,4CFW,4CFX,4D1X,4D1Z,4EK3,4EK4,4EK5,4EK6,4EK8,4EOQ,4EOR,4EOS,4ERW,4EZ3,4EZ7,4FKG,4FKI,4FKJ,4FKL,4FKO,4FKP,4FKQ,4FKR,4FKS,4FKT,4FKU,4FKV,4FKW,4FX3,4GCJ,4I3Z,4II5,4KD1,4LYN,4NJ3,4RJ3,5A14,5AND,5ANE,5ANG,5ANI,5ANJ,5ANK,5ANO,5CYI,5D1J,5FP5,5FP6,5IEV,5IEX,5IEY,5IF1,5JQ5,5JQ8,5K4J,5L2W,5LMK,5MHQ,5NEV,5OO0,5OSJ,5UQ1,5UQ2,5UQ3,6ATH,6GUB,6GUC,6GUE,6GUF,6GUH,6GUK,6GVA,6INL,6JGM,6OQI,6P3W,6Q3B,6Q3C,6Q3F,6Q48,6Q49,6Q4A,6Q4B,6Q4C,6Q4D,6Q4E,6Q4F,6Q4H,6Q4J,6Q4K,6RIJ,6SG4,7ACK,7B5L,7B5R,7B7S,7E34,7KJS,7M2F,7NVQ

> <UniProt (SwissProt) Recommended Name of Target Chain>
Cyclin-dependent kinase 2

> <UniProt (SwissProt) Entry Name of Target Chain>
CDK2_HUMAN

> <UniProt (SwissProt) Primary ID of Target Chain>
P24941

> <UniProt (SwissProt) Secondary ID(s) of Target Chain>
A8K7C6,O75100

> <UniProt (SwissProt) Alternative ID(s) of Target Chain>


> <UniProt (TrEMBL) Submitted Name of Target Chain>


> <UniProt (TrEMBL) Entry Name of Target Chain>


> <UniProt (TrEMBL) Primary ID of Target Chain>
A0A024RB77

> <UniProt (TrEMBL) Secondary ID(s) of Target Chain>


> <UniProt (TrEMBL) Alternative ID(s) of Target Chain>


$$$$
BindingDB_50444929_mol_1

Vconf v2.0 Academic SN VC001-00000579
 61 64  0  0  0  0  0  0  0  0999 V2000
    4.2840  -19.8650    5.9070 S   0  0  0  0  0  0  0  0  0  0  0
    3.1030  -19.4700    6.8940 O   0  0  0  0  0  0  0  0  0  0  0
    5.0920  -18.8130    5.0310 O   0  0  0  0  0  0  0  0  0  0  0
    6.4000  -23.9800    0.7320 C   0  0  0  0  0  0  0  0  0  0  0
    5.6140  -24.8760   -0.0200 C   0  0  0  0  0  0  0  0  0  0  0
    4.2450  -25.0180    0.2400 C   0  0  0  0  0  0  0  0  0  0  0
    5.7700  -23.2320    1.7550 C   0  0  0  0  0  0  0  0  0  0  0
    4.3870  -23.3490    2.0510 C   0  0  0  0  0  0  0  0  0  0  0
    3.6420  -24.2670    1.2590 C   0  0  0  0  0  0  0  0  0  0  0
    2.3190  -24.4420    1.4670 N   0  0  0  0  0  0  0  0  0  0  0
    1.6180  -23.7800    2.4150 C   0  0  0  0  0  0  0  0  0  0  0
    2.3030  -22.8600    3.2280 C   0  0  0  0  0  0  0  0  0  0  0
    3.6920  -22.6210    3.0700 C   0  0  0  0  0  0  0  0  0  0  0
    7.7830  -23.8660    0.4330 C   0  0  0  0  0  0  0  0  0  0  0
    4.2900  -21.6620    3.9500 C   0  0  0  0  0  0  0  0  0  0  0
    0.2380  -24.0310    2.5530 C   0  0  0  0  0  0  0  0  0  0  0
   -0.3590  -24.9320    1.7410 N   0  0  0  0  0  0  0  0  0  0  0
   -0.4430  -23.4380    3.4220 O   0  0  0  0  0  0  0  0  0  0  0
   -1.7430  -25.2620    1.7920 C   0  0  2  0  0  0  0  0  0  0  0
   -1.9510  -26.4400    0.9850 C   0  0  0  0  0  0  0  0  0  0  0
   -2.6050  -24.0840    1.2760 C   0  0  0  0  0  0  0  0  0  0  0
   -4.0560  -24.3520    1.3640 C   0  0  0  0  0  0  0  0  0  0  0
   -1.6560  -26.3950   -0.3140 O   0  0  0  0  0  0  0  0  0  0  0
   -2.3950  -27.4550    1.5030 O   0  0  0  0  0  0  0  0  0  0  0
   -1.8960  -27.5400   -1.1320 C   0  0  0  0  0  0  0  0  0  0  0
   -4.8360  -24.4850    0.1970 C   0  0  0  0  0  0  0  0  0  0  0
   -6.2150  -24.7420    0.2880 C   0  0  0  0  0  0  0  0  0  0  0
   -6.8260  -24.8660    1.5470 C   0  0  0  0  0  0  0  0  0  0  0
   -6.0560  -24.7340    2.7160 C   0  0  0  0  0  0  0  0  0  0  0
   -4.6770  -24.4770    2.6240 C   0  0  0  0  0  0  0  0  0  0  0
   -8.1520  -25.1110    1.6280 O   0  0  0  0  0  0  0  0  0  0  0
    8.7050  -23.0330    1.0750 C   0  0  0  0  0  0  0  0  0  0  0
    9.9860  -23.1420    0.5570 C   0  0  0  0  0  0  0  0  0  0  0
   10.0470  -24.0580   -0.4810 C   0  0  0  0  0  0  0  0  0  0  0
    8.5230  -24.7990   -0.8320 S   0  0  0  0  0  0  0  0  0  0  0
    5.5060  -21.3760    3.9170 O   0  0  0  0  0  0  0  0  0  0  0
    3.5810  -21.0020    4.8890 N   0  0  0  0  0  0  0  0  0  0  0
    5.4920  -20.7190    6.9330 C   0  0  0  0  0  0  0  0  0  0  0
    6.0270  -25.4360   -0.7670 H   0  0  0  0  0  0  0  0  0  0  0
    3.6900  -25.6710   -0.3150 H   0  0  0  0  0  0  0  0  0  0  0
    6.3460  -22.5890    2.2880 H   0  0  0  0  0  0  0  0  0  0  0
    1.7700  -22.3630    3.9430 H   0  0  0  0  0  0  0  0  0  0  0
    0.2010  -25.3970    1.0980 H   0  0  0  0  0  0  0  0  0  0  0
   -2.0120  -25.4900    2.8270 H   0  0  0  0  0  0  0  0  0  0  0
   -2.3890  -23.1910    1.8640 H   0  0  0  0  0  0  0  0  0  0  0
   -2.3200  -23.8750    0.2420 H   0  0  0  0  0  0  0  0  0  0  0
   -1.6000  -27.3150   -2.1570 H   0  0  0  0  0  0  0  0  0  0  0
   -1.3120  -28.3870   -0.7690 H   0  0  0  0  0  0  0  0  0  0  0
   -2.9570  -27.7960   -1.1140 H   0  0  0  0  0  0  0  0  0  0  0
   -4.4000  -24.4000   -0.7220 H   0  0  0  0  0  0  0  0  0  0  0
   -6.7710  -24.8400   -0.5610 H   0  0  0  0  0  0  0  0  0  0  0
   -6.4960  -24.8230    3.6320 H   0  0  0  0  0  0  0  0  0  0  0
   -4.1250  -24.3810    3.4770 H   0  0  0  0  0  0  0  0  0  0  0
   -8.5000  -25.1790    2.5420 H   0  0  0  0  0  0  0  0  0  0  0
    8.4760  -22.4040    1.8440 H   0  0  0  0  0  0  0  0  0  0  0
   10.7870  -22.6110    0.8980 H   0  0  0  0  0  0  0  0  0  0  0
   10.9050  -24.2750   -0.9890 H   0  0  0  0  0  0  0  0  0  0  0
    2.6340  -21.1750    4.9860 H   0  0  0  0  0  0  0  0  0  0  0
    6.2970  -21.1050    6.3090 H   0  0  0  0  0  0  0  0  0  0  0
    5.9010  -20.0210    7.6620 H   0  0  0  0  0  0  0  0  0  0  0
    5.0050  -21.5440    7.4530 H   0  0  0  0  0  0  0  0  0  0  0
  1  2  2  0  0  0  0
  1  3  2  0  0  0  0
  1 37  1  0  0  0  0
  1 38  1  0  0  0  0
  4  5  2  0  0  0  0
  4  7  1  0  0  0  0
  4 14  1  0  0  0  0
  5  6  1  0  0  0  0
  5 39  1  0  0  0  0
  6  9  2  0  0  0  0
  6 40  1  0  0  0  0
  7  8  2  0  0  0  0
  7 41  1  0  0  0  0
  8  9  1  0  0  0  0
  8 13  1  0  0  0  0
  9 10  1  0  0  0  0
 10 11  2  0  0  0  0
 11 12  1  0  0  0  0
 11 16  1  0  0  0  0
 12 13  2  0  0  0  0
 12 42  1  0  0  0  0
 13 15  1  0  0  0  0
 14 32  2  0  0  0  0
 14 35  1  0  0  0  0
 15 36  2  0  0  0  0
 15 37  1  0  0  0  0
 16 17  1  0  0  0  0
 16 18  2  0  0  0  0
 19 17  1  1  0  0  0
 17 43  1  0  0  0  0
 19 20  1  0  0  0  0
 19 21  1  0  0  0  0
 19 44  1  0  0  0  0
 20 23  1  0  0  0  0
 20 24  2  0  0  0  0
 21 22  1  0  0  0  0
 21 45  1  0  0  0  0
 21 46  1  0  0  0  0
 22 26  2  0  0  0  0
 22 30  1  0  0  0  0
 23 25  1  0  0  0  0
 25 47  1  0  0  0  0
 25 48  1  0  0  0  0
 25 49  1  0  0  0  0
 26 27  1  0  0  0  0
 26 50  1  0  0  0  0
 27 28  2  0  0  0  0
 27 51  1  0  0  0  0
 28 29  1  0  0  0  0
 28 31  1  0  0  0  0
 29 30  2  0  0  0  0
 29 52  1  0  0  0  0
 30 53  1  0  0  0  0
 31 54  1  0  0  0  0
 32 33  1  0  0  0  0
 32 55  1  0  0  0  0
 33 34  2  0  0  0  0
 33 56  1  0  0  0  0
 34 35  1  0  0  0  0
 34 57  1  0  0  0  0
 37 58  1  0  0  0  0
 38 59  1  0  0  0  0
 38 60  1  0  0  0  0
 38 61  1  0  0  0  0
M  END
> <From>
www.bindingDB.org

> <BindingDB Reactant_set_id>
50077183

> <Ligand InChI>
InChI=1S/C26H23N3O7S2/c1-36-26(33)22(12-15-5-8-17(30)9-6-15)28-25(32)21-14-19(24(31)29-38(2,34)35)18-13-16(7-10-20(18)27-21)23-4-3-11-37-23/h3-11,13-14,22,30H,12H2,1-2H3,(H,28,32)(H,29,31)/t22-/m0/s1

> <Ligand InChI Key>
ZJIWRRXPHCDIEE-QFIPXVFZSA-N

> <BindingDB MonomerID>
50444929

> <BindingDB Ligand Name>
CHEMBL3099742

> <Target Name Assigned by Curator or DataSource>
Cyclin-dependent kinase 2

> <Target Source Organism According to Curator or DataSource>
Homo sapiens

> <Ki (nM)>
>40000

> <IC50 (nM)>


> <Kd (nM)>


> <EC50 (nM)>


> <kon (M-1-s-1)>


> <koff (s-1)>


> <pH>


> <Temp C>


> <Curation/DataSource>
ChEMBL

> <Article DOI>
10.1016/j.bmcl.2013.11.041

> <PMID>
24332088

> <PubChem AID>


> <Patent Number>


> <Authors>
Deng, Y; Shipps, GW; Zhao, L; Siddiqui, MA; Popovici-Muller, J; Curran, PJ; Duca, JS; Hruza, AW; Fischmann, TO; Madison, VS; Zhang, R; McNemar, CW; Mayhood, TW; Syto, R; Annis, A; Kirschmeier, P; Lees, EM; Parry, DA; Windsor, WT

> <Institution>
Merck Research Laboratories

> <Link to Ligand in BindingDB>
http://www.bindingdb.org/bind/chemsearch/marvin/MolStructure.jsp?monomerid=50444929

> <Link to Ligand-Target Pair in BindingDB>
http://www.bindingdb.org/jsp/dbsearch/PrimarySearch_ki.jsp?energyterm=kJ/mole&tag=pol&polymerid=796&target=Cyclin-dependent+kinase+2&column=ki&startPg=0&Increment=50&submit=Search

> <Link to Ligand-Target Pair in BindingDB>
http://www.bindingdb.org/jsp/dbsearch/PrimarySearch_ki.jsp?energyterm=kJ/mole&tag=r21&monomerid=50444929&enzyme=Cyclin-dependent+kinase+2&column=ki&startPg=0&Increment=50&submit=Search

> <Ligand HET ID in PDB>


> <PDB ID(s) for Ligand-Target Complex>


> <PubChem CID>
72946279

> <PubChem SID>
194942825

> <ChEBI ID of Ligand>


> <ChEMBL ID of Ligand>
CHEMBL3099742

> <DrugBank ID of Ligand>


> <IUPHAR_GRAC ID of Ligand>


> <KEGG ID of Ligand>


> <ZINC ID of Ligand>


> <Number of Protein Chains in Target (bigger than 1 implies a multichain complex)>
1

> <BindingDB Target Chain Sequence>
MENFQKVEKIGEGTYGVVYKARNKLTGEVVALKKIRLDTETEGVPSTAIREISLLKELNHPNIVKLLDVIHTENKLYLVFEFLHQDLKKFMDASALTGIPLPLIKSYLFQLLQGLAFCHSHRVLHRDLKPQNLLINTEGAIKLADFGLARAFGVPVRTYTHEVVTLWYRAPEILLGCKYYSTAVDIWSLGCIFAEMVTRRALFPGDSEIDQLFRIFRTLGTPDEVVWPGVTSMPDYKPSFPKWARQDFSKVVPPLDEDGRSLLSQMLHYDPNKRISAKAALAHPFFQDVTKPVPHLRL

> <PDB ID(s) of Target Chain>
1CKP,1DI8,1DM2,1E1V,1E1X,1E9H,1F5Q,1FIN,1FQ1,1FVT,1FVV,1G5S,1GIH,1GY3,1GZ8,1H00,1H01,1H07,1H08,1H0V,1H0W,1H1P,1H1Q,1H1R,1H1S,1H24,1H25,1H26,1H27,1H28,1HCK,1HCL,1JST,1JSU,1JSV,1JVP,1KE5,1KE6,1KE7,1KE8,1KE9,1OGU,1OI9,1OIQ,1OIR,1OIU,1OIY,1OKV,1OKW,1OL1,1OL2,1P2A,1P5E,1PF8,1PKD,1PW2,1PXI,1PXJ,1PXK,1PXL,1PXM,1PXN,1PXO,1PXP,1PYE,1QMZ,1R78,1URC,1URW,1V1K,1VYW,1VYZ,1W0X,1W8C,1W98,1WCC,1Y8Y,1Y91,1YKR,2A0C,2A4L,2B52,2B53,2B54,2B55,2BHE,2BHH,2BKZ,2BPM,2BTR,2BTS,2C4G,2C5N,2C5O,2C5V,2C5X,2C5Y,2C68,2C69,2C6I,2C6K,2C6L,2C6M,2C6O,2C6T,2CCH,2CCI,2CJM,2CLX,2DUV,2EXM,2FVD,2G9X,2I40,2J9M,2JGZ,2R3F,2R3G,2R3H,2R3I,2R3J,2R3K,2R3L,2R3M,2R3N,2R3O,2R3P,2R3Q,2R3R,2R64,2UUE,2UZB,2UZD,2UZE,2UZL,2UZN,2UZO,2V0D,2V22,2VTA,2VTH,2VTI,2VTJ,2VTL,2VTM,2VTN,2VTO,2VTP,2VTQ,2VTR,2VTS,2VTT,2VU3,2VV9,2W05,2W06,2W17,2W1H,2WEV,2WFY,2WHB,2WIH,2WIP,2WMA,2WMB,2WPA,2WXV,2X1N,2XMY,2XNB,3BHT,3BHU,3BHV,3DDP,3DDQ,3DOG,3EID,3EJ1,3EOC,3EZR,3EZV,3F5X,3FZ1,3IG7,3IGG,3LE6,3LFN,3LFQ,3LFS,3MY5,3NS9,3PJ8,3PXF,3PXQ,3PXR,3PXY,3PXZ,3PY0,3PY1,3QHR,3QHW,3QL8,3QQF,3QQG,3QQH,3QQJ,3QQK,3QQL,3QRT,3QRU,3QTQ,3QTR,3QTS,3QTU,3QTW,3QTX,3QTZ,3QU0,3QWJ,3QWK,3QX2,3QX4,3QXO,3QXP,3QZF,3QZG,3QZH,3QZI,3R1Q,3R1S,3R1Y,3R28,3R6X,3R71,3R73,3R7E,3R7I,3R7U,3R7V,3R7Y,3R83,3R8L,3R8M,3R8P,3R8U,3R8V,3R8Z,3R9D,3R9H,3R9N,3R9O,3RAH,3RAI,3RAK,3RAL,3RJC,3RK5,3RK7,3RK9,3RKB,3RM6,3RM7,3RMF,3RNI,3ROY,3RPO,3RPR,3RPV,3RPY,3RZB,3S00,3S0O,3S1H,3S2P,3SQQ,3SW4,3SW7,3TI1,3TIY,3TIZ,3TNW,3ULI,3UNJ,3UNK,3WBL,4ACM,4BCK,4BCM,4BCN,4BCO,4BCP,4BCQ,4BGH,4BZD,4CFM,4CFN,4CFU,4CFV,4CFW,4CFX,4D1X,4D1Z,4EK3,4EK4,4EK5,4EK6,4EK8,4EOQ,4EOR,4EOS,4ERW,4EZ3,4EZ7,4FKG,4FKI,4FKJ,4FKL,4FKO,4FKP,4FKQ,4FKR,4FKS,4FKT,4FKU,4FKV,4FKW,4FX3,4GCJ,4I3Z,4II5,4KD1,4LYN,4NJ3,4RJ3,5A14,5AND,5ANE,5ANG,5ANI,5ANJ,5ANK,5ANO,5CYI,5D1J,5FP5,5FP6,5IEV,5IEX,5IEY,5IF1,5JQ5,5JQ8,5K4J,5L2W,5LMK,5MHQ,5NEV,5OO0,5OSJ,5UQ1,5UQ2,5UQ3,6ATH,6GUB,6GUC,6GUE,6GUF,6GUH,6GUK,6GVA,6INL,6JGM,6OQI,6P3W,6Q3B,6Q3C,6Q3F,6Q48,6Q49,6Q4A,6Q4B,6Q4C,6Q4D,6Q4E,6Q4F,6Q4H,6Q4J,6Q4K,6RIJ,6SG4,7ACK,7B5L,7B5R,7B7S,7E34,7KJS,7M2F,7NVQ

> <UniProt (SwissProt) Recommended Name of Target Chain>
Cyclin-dependent kinase 2

> <UniProt (SwissProt) Entry Name of Target Chain>
CDK2_HUMAN

> <UniProt (SwissProt) Primary ID of Target Chain>
P24941

> <UniProt (SwissProt) Secondary ID(s) of Target Chain>
A8K7C6,O75100

> <UniProt (SwissProt) Alternative ID(s) of Target Chain>


> <UniProt (TrEMBL) Submitted Name of Target Chain>


> <UniProt (TrEMBL) Entry Name of Target Chain>


> <UniProt (TrEMBL) Primary ID of Target Chain>
A0A024RB77

> <UniProt (TrEMBL) Secondary ID(s) of Target Chain>


> <UniProt (TrEMBL) Alternative ID(s) of Target Chain>


$$$$
BindingDB_50444926_mol_1

Vconf v2.0 Academic SN VC001-00000579
 60 63  0  0  0  0  0  0  0  0999 V2000
   13.7030   -2.9000    0.6820 C   0  0  0  0  0  0  0  0  0  0  0
   13.8930   -4.1150   -0.0160 C   0  0  0  0  0  0  0  0  0  0  0
   14.8950   -5.0210    0.3620 C   0  0  0  0  0  0  0  0  0  0  0
   14.5600   -2.6240    1.7760 C   0  0  0  0  0  0  0  0  0  0  0
   15.5830   -3.5170    2.1710 C   0  0  0  0  0  0  0  0  0  0  0
   15.7330   -4.7280    1.4480 C   0  0  0  0  0  0  0  0  0  0  0
   16.6900   -5.6170    1.8040 N   0  0  0  0  0  0  0  0  0  0  0
   17.5480   -5.4260    2.8380 C   0  0  0  0  0  0  0  0  0  0  0
   17.4410   -4.2380    3.5860 C   0  0  0  0  0  0  0  0  0  0  0
   16.4650   -3.2740    3.2570 C   0  0  0  0  0  0  0  0  0  0  0
   12.6810   -1.9810    0.2960 C   0  0  0  0  0  0  0  0  0  0  0
   16.4210   -2.1260    4.0210 C   0  0  0  0  0  0  0  0  0  0  0
   16.4130   -1.0190    3.5070 O   0  0  0  0  0  0  0  0  0  0  0
   16.4550   -2.1910    5.3400 O   0  0  0  0  0  0  0  0  0  0  0
   18.5120   -6.4120    3.1270 C   0  0  0  0  0  0  0  0  0  0  0
   18.4930   -7.5770    2.4390 N   0  0  0  0  0  0  0  0  0  0  0
   19.3750   -6.2300    4.0170 O   0  0  0  0  0  0  0  0  0  0  0
   19.4130   -8.6490    2.6380 C   0  0  2  0  0  0  0  0  0  0  0
   20.0240   -8.9690    1.3720 C   0  0  0  0  0  0  0  0  0  0  0
   18.6710   -9.8870    3.1910 C   0  0  0  0  0  0  0  0  0  0  0
   18.0550   -9.6360    4.5110 C   0  0  0  0  0  0  0  0  0  0  0
   19.2470   -9.3330    0.3520 O   0  0  0  0  0  0  0  0  0  0  0
   21.2400   -8.9060    1.2570 O   0  0  0  0  0  0  0  0  0  0  0
   19.8370   -9.6350   -0.9130 C   0  0  0  0  0  0  0  0  0  0  0
   16.6550   -9.6750    4.6710 C   0  0  0  0  0  0  0  0  0  0  0
   16.0730   -9.4260    5.9260 C   0  0  0  0  0  0  0  0  0  0  0
   16.8890   -9.1360    7.0330 C   0  0  0  0  0  0  0  0  0  0  0
   18.2850   -9.0970    6.8850 C   0  0  0  0  0  0  0  0  0  0  0
   18.8650   -9.3490    5.6290 C   0  0  0  0  0  0  0  0  0  0  0
   11.9660   -1.2340    1.2620 C   0  0  0  0  0  0  0  0  0  0  0
   10.9640   -0.3290    0.8830 C   0  0  0  0  0  0  0  0  0  0  0
   10.6570   -0.1510   -0.4740 C   0  0  0  0  0  0  0  0  0  0  0
   11.3450   -0.8730   -1.4720 C   0  0  0  0  0  0  0  0  0  0  0
   12.3500   -1.7820   -1.0670 C   0  0  0  0  0  0  0  0  0  0  0
   10.9990   -0.6520   -2.9020 C   0  0  0  0  0  0  0  0  0  0  0
   11.7290   -1.4170   -3.7830 F   0  0  0  0  0  0  0  0  0  0  0
    9.6740   -0.9470   -3.1200 F   0  0  0  0  0  0  0  0  0  0  0
   11.2130    0.6620   -3.2410 F   0  0  0  0  0  0  0  0  0  0  0
   19.0650   -8.8170    7.9520 O   0  0  0  0  0  0  0  0  0  0  0
   13.2910   -4.3590   -0.8040 H   0  0  0  0  0  0  0  0  0  0  0
   15.0100   -5.8950   -0.1530 H   0  0  0  0  0  0  0  0  0  0  0
   14.4400   -1.7480    2.2870 H   0  0  0  0  0  0  0  0  0  0  0
   18.0780   -4.0700    4.3680 H   0  0  0  0  0  0  0  0  0  0  0
   16.4470   -1.3140    5.7760 H   0  0  0  0  0  0  0  0  0  0  0
   17.8010   -7.6900    1.7680 H   0  0  0  0  0  0  0  0  0  0  0
   20.2030   -8.3690    3.3390 H   0  0  0  0  0  0  0  0  0  0  0
   17.9060  -10.1870    2.4700 H   0  0  0  0  0  0  0  0  0  0  0
   19.3800  -10.7110    3.2900 H   0  0  0  0  0  0  0  0  0  0  0
   19.0520   -9.9150   -1.6150 H   0  0  0  0  0  0  0  0  0  0  0
   20.3640   -8.7600   -1.2960 H   0  0  0  0  0  0  0  0  0  0  0
   20.5370  -10.4650   -0.8100 H   0  0  0  0  0  0  0  0  0  0  0
   16.0540   -9.8820    3.8720 H   0  0  0  0  0  0  0  0  0  0  0
   15.0590   -9.4550    6.0330 H   0  0  0  0  0  0  0  0  0  0  0
   16.4660   -8.9540    7.9430 H   0  0  0  0  0  0  0  0  0  0  0
   19.8800   -9.3180    5.5270 H   0  0  0  0  0  0  0  0  0  0  0
   12.1630   -1.3520    2.2570 H   0  0  0  0  0  0  0  0  0  0  0
   10.4570    0.1990    1.5940 H   0  0  0  0  0  0  0  0  0  0  0
    9.9270    0.5110   -0.7380 H   0  0  0  0  0  0  0  0  0  0  0
   12.8600   -2.2990   -1.7850 H   0  0  0  0  0  0  0  0  0  0  0
   20.0260   -8.7970    7.7610 H   0  0  0  0  0  0  0  0  0  0  0
  1  2  2  0  0  0  0
  1  4  1  0  0  0  0
  1 11  1  0  0  0  0
  2  3  1  0  0  0  0
  2 40  1  0  0  0  0
  3  6  2  0  0  0  0
  3 41  1  0  0  0  0
  4  5  2  0  0  0  0
  4 42  1  0  0  0  0
  5  6  1  0  0  0  0
  5 10  1  0  0  0  0
  6  7  1  0  0  0  0
  7  8  2  0  0  0  0
  8  9  1  0  0  0  0
  8 15  1  0  0  0  0
  9 10  2  0  0  0  0
  9 43  1  0  0  0  0
 10 12  1  0  0  0  0
 11 30  2  0  0  0  0
 11 34  1  0  0  0  0
 12 13  2  0  0  0  0
 12 14  1  0  0  0  0
 14 44  1  0  0  0  0
 15 16  1  0  0  0  0
 15 17  2  0  0  0  0
 18 16  1  1  0  0  0
 16 45  1  0  0  0  0
 18 19  1  0  0  0  0
 18 20  1  0  0  0  0
 18 46  1  0  0  0  0
 19 22  1  0  0  0  0
 19 23  2  0  0  0  0
 20 21  1  0  0  0  0
 20 47  1  0  0  0  0
 20 48  1  0  0  0  0
 21 25  2  0  0  0  0
 21 29  1  0  0  0  0
 22 24  1  0  0  0  0
 24 49  1  0  0  0  0
 24 50  1  0  0  0  0
 24 51  1  0  0  0  0
 25 26  1  0  0  0  0
 25 52  1  0  0  0  0
 26 27  2  0  0  0  0
 26 53  1  0  0  0  0
 27 28  1  0  0  0  0
 27 54  1  0  0  0  0
 28 29  2  0  0  0  0
 28 39  1  0  0  0  0
 29 55  1  0  0  0  0
 30 31  1  0  0  0  0
 30 56  1  0  0  0  0
 31 32  2  0  0  0  0
 31 57  1  0  0  0  0
 32 33  1  0  0  0  0
 32 58  1  0  0  0  0
 33 34  2  0  0  0  0
 33 35  1  0  0  0  0
 34 59  1  0  0  0  0
 35 36  1  0  0  0  0
 35 37  1  0  0  0  0
 35 38  1  0  0  0  0
 39 60  1  0  0  0  0
M  END
> <From>
www.bindingDB.org

> <BindingDB Reactant_set_id>
50077186

> <Ligand InChI>
InChI=1S/C28H21F3N2O6/c1-39-27(38)24(11-15-4-2-7-19(34)10-15)33-25(35)23-14-21(26(36)37)20-13-17(8-9-22(20)32-23)16-5-3-6-18(12-16)28(29,30)31/h2-10,12-14,24,34H,11H2,1H3,(H,33,35)(H,36,37)/t24-/m0/s1

> <Ligand InChI Key>
XGGSNKUHNSVXHM-DEOSSOPVSA-N

> <BindingDB MonomerID>
50444926

> <BindingDB Ligand Name>
CHEMBL3099745

> <Target Name Assigned by Curator or DataSource>
Cyclin-dependent kinase 2

> <Target Source Organism According to Curator or DataSource>
Homo sapiens

> <Ki (nM)>
>40000

> <IC50 (nM)>


> <Kd (nM)>


> <EC50 (nM)>


> <kon (M-1-s-1)>


> <koff (s-1)>


> <pH>


> <Temp C>


> <Curation/DataSource>
ChEMBL

> <Article DOI>
10.1016/j.bmcl.2013.11.041

> <PMID>
24332088

> <PubChem AID>


> <Patent Number>


> <Authors>
Deng, Y; Shipps, GW; Zhao, L; Siddiqui, MA; Popovici-Muller, J; Curran, PJ; Duca, JS; Hruza, AW; Fischmann, TO; Madison, VS; Zhang, R; McNemar, CW; Mayhood, TW; Syto, R; Annis, A; Kirschmeier, P; Lees, EM; Parry, DA; Windsor, WT

> <Institution>
Merck Research Laboratories

> <Link to Ligand in BindingDB>
http://www.bindingdb.org/bind/chemsearch/marvin/MolStructure.jsp?monomerid=50444926

> <Link to Ligand-Target Pair in BindingDB>
http://www.bindingdb.org/jsp/dbsearch/PrimarySearch_ki.jsp?energyterm=kJ/mole&tag=pol&polymerid=796&target=Cyclin-dependent+kinase+2&column=ki&startPg=0&Increment=50&submit=Search

> <Link to Ligand-Target Pair in BindingDB>
http://www.bindingdb.org/jsp/dbsearch/PrimarySearch_ki.jsp?energyterm=kJ/mole&tag=r21&monomerid=50444926&enzyme=Cyclin-dependent+kinase+2&column=ki&startPg=0&Increment=50&submit=Search

> <Ligand HET ID in PDB>


> <PDB ID(s) for Ligand-Target Complex>


> <PubChem CID>
57602228

> <PubChem SID>
194942822

> <ChEBI ID of Ligand>


> <ChEMBL ID of Ligand>
CHEMBL3099745

> <DrugBank ID of Ligand>


> <IUPHAR_GRAC ID of Ligand>


> <KEGG ID of Ligand>


> <ZINC ID of Ligand>


> <Number of Protein Chains in Target (bigger than 1 implies a multichain complex)>
1

> <BindingDB Target Chain Sequence>
MENFQKVEKIGEGTYGVVYKARNKLTGEVVALKKIRLDTETEGVPSTAIREISLLKELNHPNIVKLLDVIHTENKLYLVFEFLHQDLKKFMDASALTGIPLPLIKSYLFQLLQGLAFCHSHRVLHRDLKPQNLLINTEGAIKLADFGLARAFGVPVRTYTHEVVTLWYRAPEILLGCKYYSTAVDIWSLGCIFAEMVTRRALFPGDSEIDQLFRIFRTLGTPDEVVWPGVTSMPDYKPSFPKWARQDFSKVVPPLDEDGRSLLSQMLHYDPNKRISAKAALAHPFFQDVTKPVPHLRL

> <PDB ID(s) of Target Chain>
1CKP,1DI8,1DM2,1E1V,1E1X,1E9H,1F5Q,1FIN,1FQ1,1FVT,1FVV,1G5S,1GIH,1GY3,1GZ8,1H00,1H01,1H07,1H08,1H0V,1H0W,1H1P,1H1Q,1H1R,1H1S,1H24,1H25,1H26,1H27,1H28,1HCK,1HCL,1JST,1JSU,1JSV,1JVP,1KE5,1KE6,1KE7,1KE8,1KE9,1OGU,1OI9,1OIQ,1OIR,1OIU,1OIY,1OKV,1OKW,1OL1,1OL2,1P2A,1P5E,1PF8,1PKD,1PW2,1PXI,1PXJ,1PXK,1PXL,1PXM,1PXN,1PXO,1PXP,1PYE,1QMZ,1R78,1URC,1URW,1V1K,1VYW,1VYZ,1W0X,1W8C,1W98,1WCC,1Y8Y,1Y91,1YKR,2A0C,2A4L,2B52,2B53,2B54,2B55,2BHE,2BHH,2BKZ,2BPM,2BTR,2BTS,2C4G,2C5N,2C5O,2C5V,2C5X,2C5Y,2C68,2C69,2C6I,2C6K,2C6L,2C6M,2C6O,2C6T,2CCH,2CCI,2CJM,2CLX,2DUV,2EXM,2FVD,2G9X,2I40,2J9M,2JGZ,2R3F,2R3G,2R3H,2R3I,2R3J,2R3K,2R3L,2R3M,2R3N,2R3O,2R3P,2R3Q,2R3R,2R64,2UUE,2UZB,2UZD,2UZE,2UZL,2UZN,2UZO,2V0D,2V22,2VTA,2VTH,2VTI,2VTJ,2VTL,2VTM,2VTN,2VTO,2VTP,2VTQ,2VTR,2VTS,2VTT,2VU3,2VV9,2W05,2W06,2W17,2W1H,2WEV,2WFY,2WHB,2WIH,2WIP,2WMA,2WMB,2WPA,2WXV,2X1N,2XMY,2XNB,3BHT,3BHU,3BHV,3DDP,3DDQ,3DOG,3EID,3EJ1,3EOC,3EZR,3EZV,3F5X,3FZ1,3IG7,3IGG,3LE6,3LFN,3LFQ,3LFS,3MY5,3NS9,3PJ8,3PXF,3PXQ,3PXR,3PXY,3PXZ,3PY0,3PY1,3QHR,3QHW,3QL8,3QQF,3QQG,3QQH,3QQJ,3QQK,3QQL,3QRT,3QRU,3QTQ,3QTR,3QTS,3QTU,3QTW,3QTX,3QTZ,3QU0,3QWJ,3QWK,3QX2,3QX4,3QXO,3QXP,3QZF,3QZG,3QZH,3QZI,3R1Q,3R1S,3R1Y,3R28,3R6X,3R71,3R73,3R7E,3R7I,3R7U,3R7V,3R7Y,3R83,3R8L,3R8M,3R8P,3R8U,3R8V,3R8Z,3R9D,3R9H,3R9N,3R9O,3RAH,3RAI,3RAK,3RAL,3RJC,3RK5,3RK7,3RK9,3RKB,3RM6,3RM7,3RMF,3RNI,3ROY,3RPO,3RPR,3RPV,3RPY,3RZB,3S00,3S0O,3S1H,3S2P,3SQQ,3SW4,3SW7,3TI1,3TIY,3TIZ,3TNW,3ULI,3UNJ,3UNK,3WBL,4ACM,4BCK,4BCM,4BCN,4BCO,4BCP,4BCQ,4BGH,4BZD,4CFM,4CFN,4CFU,4CFV,4CFW,4CFX,4D1X,4D1Z,4EK3,4EK4,4EK5,4EK6,4EK8,4EOQ,4EOR,4EOS,4ERW,4EZ3,4EZ7,4FKG,4FKI,4FKJ,4FKL,4FKO,4FKP,4FKQ,4FKR,4FKS,4FKT,4FKU,4FKV,4FKW,4FX3,4GCJ,4I3Z,4II5,4KD1,4LYN,4NJ3,4RJ3,5A14,5AND,5ANE,5ANG,5ANI,5ANJ,5ANK,5ANO,5CYI,5D1J,5FP5,5FP6,5IEV,5IEX,5IEY,5IF1,5JQ5,5JQ8,5K4J,5L2W,5LMK,5MHQ,5NEV,5OO0,5OSJ,5UQ1,5UQ2,5UQ3,6ATH,6GUB,6GUC,6GUE,6GUF,6GUH,6GUK,6GVA,6INL,6JGM,6OQI,6P3W,6Q3B,6Q3C,6Q3F,6Q48,6Q49,6Q4A,6Q4B,6Q4C,6Q4D,6Q4E,6Q4F,6Q4H,6Q4J,6Q4K,6RIJ,6SG4,7ACK,7B5L,7B5R,7B7S,7E34,7KJS,7M2F,7NVQ

> <UniProt (SwissProt) Recommended Name of Target Chain>
Cyclin-dependent kinase 2

> <UniProt (SwissProt) Entry Name of Target Chain>
CDK2_HUMAN

> <UniProt (SwissProt) Primary ID of Target Chain>
P24941

> <UniProt (SwissProt) Secondary ID(s) of Target Chain>
A8K7C6,O75100

> <UniProt (SwissProt) Alternative ID(s) of Target Chain>


> <UniProt (TrEMBL) Submitted Name of Target Chain>


> <UniProt (TrEMBL) Entry Name of Target Chain>


> <UniProt (TrEMBL) Primary ID of Target Chain>
A0A024RB77

> <UniProt (TrEMBL) Secondary ID(s) of Target Chain>


> <UniProt (TrEMBL) Alternative ID(s) of Target Chain>


$$$$
BindingDB_50444931_mol_1

Vconf v2.0 Academic SN VC001-00000579
 61 64  0  0  0  0  0  0  0  0999 V2000
   13.6090  -18.7620    0.3920 C   0  0  0  0  0  0  0  0  0  0  0
   13.7820  -19.8980   -0.4330 C   0  0  0  0  0  0  0  0  0  0  0
   14.2800  -21.1040    0.0830 C   0  0  0  0  0  0  0  0  0  0  0
   13.9580  -18.8800    1.7600 C   0  0  0  0  0  0  0  0  0  0  0
   14.4550  -20.0860    2.3010 C   0  0  0  0  0  0  0  0  0  0  0
   14.6130  -21.2020    1.4420 C   0  0  0  0  0  0  0  0  0  0  0
   15.0860  -22.3730    1.9310 N   0  0  0  0  0  0  0  0  0  0  0
   15.4300  -22.5600    3.2320 C   0  0  0  0  0  0  0  0  0  0  0
   15.2940  -21.4780    4.1230 C   0  0  0  0  0  0  0  0  0  0  0
   14.8060  -20.2370    3.6660 C   0  0  0  0  0  0  0  0  0  0  0
   13.0920  -17.5390   -0.1360 C   0  0  0  0  0  0  0  0  0  0  0
   14.6770  -19.1270    4.6350 C   0  0  0  0  0  0  0  0  0  0  0
   13.3120  -18.7540    4.7790 O   0  0  0  0  0  0  0  0  0  0  0
   15.9000  -23.8210    3.6470 C   0  0  0  0  0  0  0  0  0  0  0
   16.0450  -24.8090    2.7350 N   0  0  0  0  0  0  0  0  0  0  0
   16.1850  -24.0430    4.8470 O   0  0  0  0  0  0  0  0  0  0  0
   16.4810  -26.1290    3.0460 C   0  0  2  0  0  0  0  0  0  0  0
   16.7860  -26.8020    1.8060 C   0  0  0  0  0  0  0  0  0  0  0
   15.3810  -26.8860    3.8310 C   0  0  0  0  0  0  0  0  0  0  0
   15.7660  -28.2670    4.1900 C   0  0  0  0  0  0  0  0  0  0  0
   15.8220  -26.9610    0.9000 O   0  0  0  0  0  0  0  0  0  0  0
   17.9200  -27.2150    1.6090 O   0  0  0  0  0  0  0  0  0  0  0
   16.1000  -27.6700   -0.3080 C   0  0  0  0  0  0  0  0  0  0  0
   16.8300  -28.4980    5.0860 C   0  0  0  0  0  0  0  0  0  0  0
   17.1970  -29.8100    5.4310 C   0  0  0  0  0  0  0  0  0  0  0
   16.5030  -30.9030    4.8850 C   0  0  0  0  0  0  0  0  0  0  0
   15.4420  -30.6810    3.9910 C   0  0  0  0  0  0  0  0  0  0  0
   15.0750  -29.3690    3.6460 C   0  0  0  0  0  0  0  0  0  0  0
   16.8580  -32.1620    5.2230 O   0  0  0  0  0  0  0  0  0  0  0
   12.2500  -16.7070    0.6390 C   0  0  0  0  0  0  0  0  0  0  0
   11.7380  -15.5090    0.1210 C   0  0  0  0  0  0  0  0  0  0  0
   12.0560  -15.1190   -1.1880 C   0  0  0  0  0  0  0  0  0  0  0
   12.8920  -15.9170   -1.9980 C   0  0  0  0  0  0  0  0  0  0  0
   13.3990  -17.1200   -1.4530 C   0  0  0  0  0  0  0  0  0  0  0
   13.2090  -15.4710   -3.3810 C   0  0  0  0  0  0  0  0  0  0  0
   14.0230  -16.3340   -4.0780 F   0  0  0  0  0  0  0  0  0  0  0
   12.0530  -15.3360   -4.1110 F   0  0  0  0  0  0  0  0  0  0  0
   13.8480  -14.2550   -3.3500 F   0  0  0  0  0  0  0  0  0  0  0
   13.5320  -19.8620   -1.4230 H   0  0  0  0  0  0  0  0  0  0  0
   14.3930  -21.9110   -0.5320 H   0  0  0  0  0  0  0  0  0  0  0
   13.8540  -18.0700    2.3720 H   0  0  0  0  0  0  0  0  0  0  0
   15.5450  -21.5920    5.1070 H   0  0  0  0  0  0  0  0  0  0  0
   15.0550  -19.4140    5.6180 H   0  0  0  0  0  0  0  0  0  0  0
   15.2530  -18.2680    4.2870 H   0  0  0  0  0  0  0  0  0  0  0
   13.1570  -18.0210    5.4100 H   0  0  0  0  0  0  0  0  0  0  0
   15.8480  -24.5970    1.8080 H   0  0  0  0  0  0  0  0  0  0  0
   17.3900  -26.0700    3.6500 H   0  0  0  0  0  0  0  0  0  0  0
   15.1610  -26.3450    4.7520 H   0  0  0  0  0  0  0  0  0  0  0
   14.4710  -26.8920    3.2260 H   0  0  0  0  0  0  0  0  0  0  0
   15.2010  -27.6910   -0.9230 H   0  0  0  0  0  0  0  0  0  0  0
   16.8980  -27.1700   -0.8590 H   0  0  0  0  0  0  0  0  0  0  0
   16.4010  -28.6930   -0.0790 H   0  0  0  0  0  0  0  0  0  0  0
   17.3380  -27.7100    5.4900 H   0  0  0  0  0  0  0  0  0  0  0
   17.9680  -29.9690    6.0810 H   0  0  0  0  0  0  0  0  0  0  0
   14.9350  -31.4710    3.5910 H   0  0  0  0  0  0  0  0  0  0  0
   14.3040  -29.2170    2.9940 H   0  0  0  0  0  0  0  0  0  0  0
   16.3210  -32.8640    4.8010 H   0  0  0  0  0  0  0  0  0  0  0
   11.9910  -16.9740    1.5900 H   0  0  0  0  0  0  0  0  0  0  0
   11.1300  -14.9230    0.6940 H   0  0  0  0  0  0  0  0  0  0  0
   11.6760  -14.2460   -1.5550 H   0  0  0  0  0  0  0  0  0  0  0
   14.0150  -17.6950   -2.0300 H   0  0  0  0  0  0  0  0  0  0  0
  1  2  2  0  0  0  0
  1  4  1  0  0  0  0
  1 11  1  0  0  0  0
  2  3  1  0  0  0  0
  2 39  1  0  0  0  0
  3  6  2  0  0  0  0
  3 40  1  0  0  0  0
  4  5  2  0  0  0  0
  4 41  1  0  0  0  0
  5  6  1  0  0  0  0
  5 10  1  0  0  0  0
  6  7  1  0  0  0  0
  7  8  2  0  0  0  0
  8  9  1  0  0  0  0
  8 14  1  0  0  0  0
  9 10  2  0  0  0  0
  9 42  1  0  0  0  0
 10 12  1  0  0  0  0
 11 30  2  0  0  0  0
 11 34  1  0  0  0  0
 12 13  1  0  0  0  0
 12 43  1  0  0  0  0
 12 44  1  0  0  0  0
 13 45  1  0  0  0  0
 14 15  1  0  0  0  0
 14 16  2  0  0  0  0
 17 15  1  1  0  0  0
 15 46  1  0  0  0  0
 17 18  1  0  0  0  0
 17 19  1  0  0  0  0
 17 47  1  0  0  0  0
 18 21  1  0  0  0  0
 18 22  2  0  0  0  0
 19 20  1  0  0  0  0
 19 48  1  0  0  0  0
 19 49  1  0  0  0  0
 20 24  2  0  0  0  0
 20 28  1  0  0  0  0
 21 23  1  0  0  0  0
 23 50  1  0  0  0  0
 23 51  1  0  0  0  0
 23 52  1  0  0  0  0
 24 25  1  0  0  0  0
 24 53  1  0  0  0  0
 25 26  2  0  0  0  0
 25 54  1  0  0  0  0
 26 27  1  0  0  0  0
 26 29  1  0  0  0  0
 27 28  2  0  0  0  0
 27 55  1  0  0  0  0
 28 56  1  0  0  0  0
 29 57  1  0  0  0  0
 30 31  1  0  0  0  0
 30 58  1  0  0  0  0
 31 32  2  0  0  0  0
 31 59  1  0  0  0  0
 32 33  1  0  0  0  0
 32 60  1  0  0  0  0
 33 34  2  0  0  0  0
 33 35  1  0  0  0  0
 34 61  1  0  0  0  0
 35 36  1  0  0  0  0
 35 37  1  0  0  0  0
 35 38  1  0  0  0  0
M  END
> <From>
www.bindingDB.org

> <BindingDB Reactant_set_id>
51087228

> <Ligand InChI>
InChI=1S/C28H23F3N2O5/c1-38-27(37)25(11-16-5-8-21(35)9-6-16)33-26(36)24-14-19(15-34)22-13-18(7-10-23(22)32-24)17-3-2-4-20(12-17)28(29,30)31/h2-10,12-14,25,34-35H,11,15H2,1H3,(H,33,36)/t25-/m0/s1

> <Ligand InChI Key>
WCXRTEQTXGUQMQ-VWLOTQADSA-N

> <BindingDB MonomerID>
50444931

> <BindingDB Ligand Name>
CHEMBL3099765

> <Target Name Assigned by Curator or DataSource>
Cyclin-dependent kinase 2

> <Target Source Organism According to Curator or DataSource>
Homo sapiens

> <Ki (nM)>
>40000

> <IC50 (nM)>


> <Kd (nM)>


> <EC50 (nM)>


> <kon (M-1-s-1)>


> <koff (s-1)>


> <pH>


> <Temp C>


> <Curation/DataSource>
ChEMBL

> <Article DOI>
10.1016/j.bmcl.2013.11.041

> <PMID>
24332088

> <PubChem AID>


> <Patent Number>


> <Authors>
Deng, Y; Shipps, GW; Zhao, L; Siddiqui, MA; Popovici-Muller, J; Curran, PJ; Duca, JS; Hruza, AW; Fischmann, TO; Madison, VS; Zhang, R; McNemar, CW; Mayhood, TW; Syto, R; Annis, A; Kirschmeier, P; Lees, EM; Parry, DA; Windsor, WT

> <Institution>
Merck Research Laboratories

> <Link to Ligand in BindingDB>
http://www.bindingdb.org/bind/chemsearch/marvin/MolStructure.jsp?monomerid=50444931

> <Link to Ligand-Target Pair in BindingDB>
http://www.bindingdb.org/jsp/dbsearch/PrimarySearch_ki.jsp?energyterm=kJ/mole&tag=pol&polymerid=796&target=Cyclin-dependent+kinase+2&column=ki&startPg=0&Increment=50&submit=Search

> <Link to Ligand-Target Pair in BindingDB>
http://www.bindingdb.org/jsp/dbsearch/PrimarySearch_ki.jsp?energyterm=kJ/mole&tag=r21&monomerid=50444931&enzyme=Cyclin-dependent+kinase+2&column=ki&startPg=0&Increment=50&submit=Search

> <Ligand HET ID in PDB>


> <PDB ID(s) for Ligand-Target Complex>


> <PubChem CID>
72946278

> <PubChem SID>
194942827

> <ChEBI ID of Ligand>


> <ChEMBL ID of Ligand>
CHEMBL3099765

> <DrugBank ID of Ligand>


> <IUPHAR_GRAC ID of Ligand>


> <KEGG ID of Ligand>


> <ZINC ID of Ligand>


> <Number of Protein Chains in Target (bigger than 1 implies a multichain complex)>
1

> <BindingDB Target Chain Sequence>
MENFQKVEKIGEGTYGVVYKARNKLTGEVVALKKIRLDTETEGVPSTAIREISLLKELNHPNIVKLLDVIHTENKLYLVFEFLHQDLKKFMDASALTGIPLPLIKSYLFQLLQGLAFCHSHRVLHRDLKPQNLLINTEGAIKLADFGLARAFGVPVRTYTHEVVTLWYRAPEILLGCKYYSTAVDIWSLGCIFAEMVTRRALFPGDSEIDQLFRIFRTLGTPDEVVWPGVTSMPDYKPSFPKWARQDFSKVVPPLDEDGRSLLSQMLHYDPNKRISAKAALAHPFFQDVTKPVPHLRL

> <PDB ID(s) of Target Chain>
1CKP,1DI8,1DM2,1E1V,1E1X,1E9H,1F5Q,1FIN,1FQ1,1FVT,1FVV,1G5S,1GIH,1GY3,1GZ8,1H00,1H01,1H07,1H08,1H0V,1H0W,1H1P,1H1Q,1H1R,1H1S,1H24,1H25,1H26,1H27,1H28,1HCK,1HCL,1JST,1JSU,1JSV,1JVP,1KE5,1KE6,1KE7,1KE8,1KE9,1OGU,1OI9,1OIQ,1OIR,1OIU,1OIY,1OKV,1OKW,1OL1,1OL2,1P2A,1P5E,1PF8,1PKD,1PW2,1PXI,1PXJ,1PXK,1PXL,1PXM,1PXN,1PXO,1PXP,1PYE,1QMZ,1R78,1URC,1URW,1V1K,1VYW,1VYZ,1W0X,1W8C,1W98,1WCC,1Y8Y,1Y91,1YKR,2A0C,2A4L,2B52,2B53,2B54,2B55,2BHE,2BHH,2BKZ,2BPM,2BTR,2BTS,2C4G,2C5N,2C5O,2C5V,2C5X,2C5Y,2C68,2C69,2C6I,2C6K,2C6L,2C6M,2C6O,2C6T,2CCH,2CCI,2CJM,2CLX,2DUV,2EXM,2FVD,2G9X,2I40,2J9M,2JGZ,2R3F,2R3G,2R3H,2R3I,2R3J,2R3K,2R3L,2R3M,2R3N,2R3O,2R3P,2R3Q,2R3R,2R64,2UUE,2UZB,2UZD,2UZE,2UZL,2UZN,2UZO,2V0D,2V22,2VTA,2VTH,2VTI,2VTJ,2VTL,2VTM,2VTN,2VTO,2VTP,2VTQ,2VTR,2VTS,2VTT,2VU3,2VV9,2W05,2W06,2W17,2W1H,2WEV,2WFY,2WHB,2WIH,2WIP,2WMA,2WMB,2WPA,2WXV,2X1N,2XMY,2XNB,3BHT,3BHU,3BHV,3DDP,3DDQ,3DOG,3EID,3EJ1,3EOC,3EZR,3EZV,3F5X,3FZ1,3IG7,3IGG,3LE6,3LFN,3LFQ,3LFS,3MY5,3NS9,3PJ8,3PXF,3PXQ,3PXR,3PXY,3PXZ,3PY0,3PY1,3QHR,3QHW,3QL8,3QQF,3QQG,3QQH,3QQJ,3QQK,3QQL,3QRT,3QRU,3QTQ,3QTR,3QTS,3QTU,3QTW,3QTX,3QTZ,3QU0,3QWJ,3QWK,3QX2,3QX4,3QXO,3QXP,3QZF,3QZG,3QZH,3QZI,3R1Q,3R1S,3R1Y,3R28,3R6X,3R71,3R73,3R7E,3R7I,3R7U,3R7V,3R7Y,3R83,3R8L,3R8M,3R8P,3R8U,3R8V,3R8Z,3R9D,3R9H,3R9N,3R9O,3RAH,3RAI,3RAK,3RAL,3RJC,3RK5,3RK7,3RK9,3RKB,3RM6,3RM7,3RMF,3RNI,3ROY,3RPO,3RPR,3RPV,3RPY,3RZB,3S00,3S0O,3S1H,3S2P,3SQQ,3SW4,3SW7,3TI1,3TIY,3TIZ,3TNW,3ULI,3UNJ,3UNK,3WBL,4ACM,4BCK,4BCM,4BCN,4BCO,4BCP,4BCQ,4BGH,4BZD,4CFM,4CFN,4CFU,4CFV,4CFW,4CFX,4D1X,4D1Z,4EK3,4EK4,4EK5,4EK6,4EK8,4EOQ,4EOR,4EOS,4ERW,4EZ3,4EZ7,4FKG,4FKI,4FKJ,4FKL,4FKO,4FKP,4FKQ,4FKR,4FKS,4FKT,4FKU,4FKV,4FKW,4FX3,4GCJ,4I3Z,4II5,4KD1,4LYN,4NJ3,4RJ3,5A14,5AND,5ANE,5ANG,5ANI,5ANJ,5ANK,5ANO,5CYI,5D1J,5FP5,5FP6,5IEV,5IEX,5IEY,5IF1,5JQ5,5JQ8,5K4J,5L2W,5LMK,5MHQ,5NEV,5OO0,5OSJ,5UQ1,5UQ2,5UQ3,6ATH,6GUB,6GUC,6GUE,6GUF,6GUH,6GUK,6GVA,6INL,6JGM,6OQI,6P3W,6Q3B,6Q3C,6Q3F,6Q48,6Q49,6Q4A,6Q4B,6Q4C,6Q4D,6Q4E,6Q4F,6Q4H,6Q4J,6Q4K,6RIJ,6SG4,7ACK,7B5L,7B5R,7B7S,7E34,7KJS,7M2F,7NVQ

> <UniProt (SwissProt) Recommended Name of Target Chain>
Cyclin-dependent kinase 2

> <UniProt (SwissProt) Entry Name of Target Chain>
CDK2_HUMAN

> <UniProt (SwissProt) Primary ID of Target Chain>
P24941

> <UniProt (SwissProt) Secondary ID(s) of Target Chain>
A8K7C6,O75100

> <UniProt (SwissProt) Alternative ID(s) of Target Chain>


> <UniProt (TrEMBL) Submitted Name of Target Chain>


> <UniProt (TrEMBL) Entry Name of Target Chain>


> <UniProt (TrEMBL) Primary ID of Target Chain>
A0A024RB77

> <UniProt (TrEMBL) Secondary ID(s) of Target Chain>


> <UniProt (TrEMBL) Alternative ID(s) of Target Chain>


$$$$
BindingDB_50444925_mol_1

Vconf v2.0 Academic SN VC001-00000579
 48 51  0  0  0  0  0  0  0  0999 V2000
   21.5160   -2.3690    0.4390 C   0  0  0  0  0  0  0  0  0  0  0
   21.5580   -3.6530   -0.1410 C   0  0  0  0  0  0  0  0  0  0  0
   22.0470   -4.7500    0.5800 C   0  0  0  0  0  0  0  0  0  0  0
   21.9810   -2.2190    1.7680 C   0  0  0  0  0  0  0  0  0  0  0
   22.4830   -3.3070    2.5280 C   0  0  0  0  0  0  0  0  0  0  0
   22.5010   -4.5800    1.8960 C   0  0  0  0  0  0  0  0  0  0  0
   22.9590   -5.6690    2.5540 N   0  0  0  0  0  0  0  0  0  0  0
   23.4210   -5.6360    3.8260 C   0  0  0  0  0  0  0  0  0  0  0
   23.4300   -4.4010    4.4990 C   0  0  0  0  0  0  0  0  0  0  0
   22.9650   -3.2200    3.8710 C   0  0  0  0  0  0  0  0  0  0  0
   21.0100   -1.2870   -0.3260 C   0  0  0  0  0  0  0  0  0  0  0
   23.0210   -2.0280    4.6520 C   0  0  0  0  0  0  0  0  0  0  0
   22.6530   -0.9050    4.2480 O   0  0  0  0  0  0  0  0  0  0  0
   23.4910   -2.0350    5.9200 O   0  0  0  0  0  0  0  0  0  0  0
   23.8690   -6.8300    4.4280 C   0  0  0  0  0  0  0  0  0  0  0
   23.8310   -7.9840    3.7260 N   0  0  0  0  0  0  0  0  0  0  0
   24.2970   -6.8410    5.6060 O   0  0  0  0  0  0  0  0  0  0  0
   24.2450   -9.2310    4.2610 C   0  0  0  0  0  0  0  0  0  0  0
   24.0670  -10.3250    3.1920 C   0  0  0  0  0  0  0  0  0  0  0
   24.4100  -11.6650    3.7080 C   0  0  0  0  0  0  0  0  0  0  0
   25.7350  -11.9630    4.0900 C   0  0  0  0  0  0  0  0  0  0  0
   26.0670  -13.2390    4.5760 C   0  0  0  0  0  0  0  0  0  0  0
   25.0770  -14.2300    4.6840 C   0  0  0  0  0  0  0  0  0  0  0
   23.7540  -13.9430    4.3030 C   0  0  0  0  0  0  0  0  0  0  0
   23.4240  -12.6670    3.8170 C   0  0  0  0  0  0  0  0  0  0  0
   25.4020  -15.4560    5.1510 O   0  0  0  0  0  0  0  0  0  0  0
   20.8980    0.0430    0.0900 C   0  0  0  0  0  0  0  0  0  0  0
   20.3670    0.8740   -0.8840 C   0  0  0  0  0  0  0  0  0  0  0
   20.0700    0.1810   -2.0470 C   0  0  0  0  0  0  0  0  0  0  0
   20.4440   -1.5060   -1.9540 S   0  0  0  0  0  0  0  0  0  0  0
   21.2340   -3.8060   -1.0970 H   0  0  0  0  0  0  0  0  0  0  0
   22.0690   -5.6730    0.1440 H   0  0  0  0  0  0  0  0  0  0  0
   21.9470   -1.2920    2.1800 H   0  0  0  0  0  0  0  0  0  0  0
   23.7790   -4.3700    5.4600 H   0  0  0  0  0  0  0  0  0  0  0
   23.4750   -1.1540    6.3480 H   0  0  0  0  0  0  0  0  0  0  0
   23.4990   -7.9510    2.8150 H   0  0  0  0  0  0  0  0  0  0  0
   25.2940   -9.1680    4.5570 H   0  0  0  0  0  0  0  0  0  0  0
   23.6370   -9.4710    5.1360 H   0  0  0  0  0  0  0  0  0  0  0
   23.0290  -10.3050    2.8540 H   0  0  0  0  0  0  0  0  0  0  0
   24.7070  -10.0970    2.3370 H   0  0  0  0  0  0  0  0  0  0  0
   26.4610  -11.2500    4.0130 H   0  0  0  0  0  0  0  0  0  0  0
   27.0270  -13.4460    4.8500 H   0  0  0  0  0  0  0  0  0  0  0
   23.0330  -14.6610    4.3790 H   0  0  0  0  0  0  0  0  0  0  0
   22.4610  -12.4680    3.5440 H   0  0  0  0  0  0  0  0  0  0  0
   24.6550  -16.0890    5.1920 H   0  0  0  0  0  0  0  0  0  0  0
   21.1750    0.3850    1.0110 H   0  0  0  0  0  0  0  0  0  0  0
   20.2120    1.8740   -0.7600 H   0  0  0  0  0  0  0  0  0  0  0
   19.6710    0.6220   -2.8770 H   0  0  0  0  0  0  0  0  0  0  0
  1  2  2  0  0  0  0
  1  4  1  0  0  0  0
  1 11  1  0  0  0  0
  2  3  1  0  0  0  0
  2 31  1  0  0  0  0
  3  6  2  0  0  0  0
  3 32  1  0  0  0  0
  4  5  2  0  0  0  0
  4 33  1  0  0  0  0
  5  6  1  0  0  0  0
  5 10  1  0  0  0  0
  6  7  1  0  0  0  0
  7  8  2  0  0  0  0
  8  9  1  0  0  0  0
  8 15  1  0  0  0  0
  9 10  2  0  0  0  0
  9 34  1  0  0  0  0
 10 12  1  0  0  0  0
 11 27  2  0  0  0  0
 11 30  1  0  0  0  0
 12 13  2  0  0  0  0
 12 14  1  0  0  0  0
 14 35  1  0  0  0  0
 15 16  1  0  0  0  0
 15 17  2  0  0  0  0
 16 18  1  0  0  0  0
 16 36  1  0  0  0  0
 18 19  1  0  0  0  0
 18 37  1  0  0  0  0
 18 38  1  0  0  0  0
 19 20  1  0  0  0  0
 19 39  1  0  0  0  0
 19 40  1  0  0  0  0
 20 21  2  0  0  0  0
 20 25  1  0  0  0  0
 21 22  1  0  0  0  0
 21 41  1  0  0  0  0
 22 23  2  0  0  0  0
 22 42  1  0  0  0  0
 23 24  1  0  0  0  0
 23 26  1  0  0  0  0
 24 25  2  0  0  0  0
 24 43  1  0  0  0  0
 25 44  1  0  0  0  0
 26 45  1  0  0  0  0
 27 28  1  0  0  0  0
 27 46  1  0  0  0  0
 28 29  2  0  0  0  0
 28 47  1  0  0  0  0
 29 30  1  0  0  0  0
 29 48  1  0  0  0  0
M  END
> <From>
www.bindingDB.org

> <BindingDB Reactant_set_id>
50077188

> <Ligand InChI>
InChI=1S/C23H18N2O4S/c26-16-6-3-14(4-7-16)9-10-24-22(27)20-13-18(23(28)29)17-12-15(5-8-19(17)25-20)21-2-1-11-30-21/h1-8,11-13,26H,9-10H2,(H,24,27)(H,28,29)

> <Ligand InChI Key>
XRMAEPRYVMTQOF-UHFFFAOYSA-N

> <BindingDB MonomerID>
50444925

> <BindingDB Ligand Name>
CHEMBL3099746

> <Target Name Assigned by Curator or DataSource>
Cyclin-dependent kinase 2

> <Target Source Organism According to Curator or DataSource>
Homo sapiens

> <Ki (nM)>
>40000

> <IC50 (nM)>


> <Kd (nM)>


> <EC50 (nM)>


> <kon (M-1-s-1)>


> <koff (s-1)>


> <pH>


> <Temp C>


> <Curation/DataSource>
ChEMBL

> <Article DOI>
10.1016/j.bmcl.2013.11.041

> <PMID>
24332088

> <PubChem AID>


> <Patent Number>


> <Authors>
Deng, Y; Shipps, GW; Zhao, L; Siddiqui, MA; Popovici-Muller, J; Curran, PJ; Duca, JS; Hruza, AW; Fischmann, TO; Madison, VS; Zhang, R; McNemar, CW; Mayhood, TW; Syto, R; Annis, A; Kirschmeier, P; Lees, EM; Parry, DA; Windsor, WT

> <Institution>
Merck Research Laboratories

> <Link to Ligand in BindingDB>
http://www.bindingdb.org/bind/chemsearch/marvin/MolStructure.jsp?monomerid=50444925

> <Link to Ligand-Target Pair in BindingDB>
http://www.bindingdb.org/jsp/dbsearch/PrimarySearch_ki.jsp?energyterm=kJ/mole&tag=pol&polymerid=796&target=Cyclin-dependent+kinase+2&column=ki&startPg=0&Increment=50&submit=Search

> <Link to Ligand-Target Pair in BindingDB>
http://www.bindingdb.org/jsp/dbsearch/PrimarySearch_ki.jsp?energyterm=kJ/mole&tag=r21&monomerid=50444925&enzyme=Cyclin-dependent+kinase+2&column=ki&startPg=0&Increment=50&submit=Search

> <Ligand HET ID in PDB>


> <PDB ID(s) for Ligand-Target Complex>


> <PubChem CID>
72946455

> <PubChem SID>
194942821

> <ChEBI ID of Ligand>


> <ChEMBL ID of Ligand>
CHEMBL3099746

> <DrugBank ID of Ligand>


> <IUPHAR_GRAC ID of Ligand>


> <KEGG ID of Ligand>


> <ZINC ID of Ligand>


> <Number of Protein Chains in Target (bigger than 1 implies a multichain complex)>
1

> <BindingDB Target Chain Sequence>
MENFQKVEKIGEGTYGVVYKARNKLTGEVVALKKIRLDTETEGVPSTAIREISLLKELNHPNIVKLLDVIHTENKLYLVFEFLHQDLKKFMDASALTGIPLPLIKSYLFQLLQGLAFCHSHRVLHRDLKPQNLLINTEGAIKLADFGLARAFGVPVRTYTHEVVTLWYRAPEILLGCKYYSTAVDIWSLGCIFAEMVTRRALFPGDSEIDQLFRIFRTLGTPDEVVWPGVTSMPDYKPSFPKWARQDFSKVVPPLDEDGRSLLSQMLHYDPNKRISAKAALAHPFFQDVTKPVPHLRL

> <PDB ID(s) of Target Chain>
1CKP,1DI8,1DM2,1E1V,1E1X,1E9H,1F5Q,1FIN,1FQ1,1FVT,1FVV,1G5S,1GIH,1GY3,1GZ8,1H00,1H01,1H07,1H08,1H0V,1H0W,1H1P,1H1Q,1H1R,1H1S,1H24,1H25,1H26,1H27,1H28,1HCK,1HCL,1JST,1JSU,1JSV,1JVP,1KE5,1KE6,1KE7,1KE8,1KE9,1OGU,1OI9,1OIQ,1OIR,1OIU,1OIY,1OKV,1OKW,1OL1,1OL2,1P2A,1P5E,1PF8,1PKD,1PW2,1PXI,1PXJ,1PXK,1PXL,1PXM,1PXN,1PXO,1PXP,1PYE,1QMZ,1R78,1URC,1URW,1V1K,1VYW,1VYZ,1W0X,1W8C,1W98,1WCC,1Y8Y,1Y91,1YKR,2A0C,2A4L,2B52,2B53,2B54,2B55,2BHE,2BHH,2BKZ,2BPM,2BTR,2BTS,2C4G,2C5N,2C5O,2C5V,2C5X,2C5Y,2C68,2C69,2C6I,2C6K,2C6L,2C6M,2C6O,2C6T,2CCH,2CCI,2CJM,2CLX,2DUV,2EXM,2FVD,2G9X,2I40,2J9M,2JGZ,2R3F,2R3G,2R3H,2R3I,2R3J,2R3K,2R3L,2R3M,2R3N,2R3O,2R3P,2R3Q,2R3R,2R64,2UUE,2UZB,2UZD,2UZE,2UZL,2UZN,2UZO,2V0D,2V22,2VTA,2VTH,2VTI,2VTJ,2VTL,2VTM,2VTN,2VTO,2VTP,2VTQ,2VTR,2VTS,2VTT,2VU3,2VV9,2W05,2W06,2W17,2W1H,2WEV,2WFY,2WHB,2WIH,2WIP,2WMA,2WMB,2WPA,2WXV,2X1N,2XMY,2XNB,3BHT,3BHU,3BHV,3DDP,3DDQ,3DOG,3EID,3EJ1,3EOC,3EZR,3EZV,3F5X,3FZ1,3IG7,3IGG,3LE6,3LFN,3LFQ,3LFS,3MY5,3NS9,3PJ8,3PXF,3PXQ,3PXR,3PXY,3PXZ,3PY0,3PY1,3QHR,3QHW,3QL8,3QQF,3QQG,3QQH,3QQJ,3QQK,3QQL,3QRT,3QRU,3QTQ,3QTR,3QTS,3QTU,3QTW,3QTX,3QTZ,3QU0,3QWJ,3QWK,3QX2,3QX4,3QXO,3QXP,3QZF,3QZG,3QZH,3QZI,3R1Q,3R1S,3R1Y,3R28,3R6X,3R71,3R73,3R7E,3R7I,3R7U,3R7V,3R7Y,3R83,3R8L,3R8M,3R8P,3R8U,3R8V,3R8Z,3R9D,3R9H,3R9N,3R9O,3RAH,3RAI,3RAK,3RAL,3RJC,3RK5,3RK7,3RK9,3RKB,3RM6,3RM7,3RMF,3RNI,3ROY,3RPO,3RPR,3RPV,3RPY,3RZB,3S00,3S0O,3S1H,3S2P,3SQQ,3SW4,3SW7,3TI1,3TIY,3TIZ,3TNW,3ULI,3UNJ,3UNK,3WBL,4ACM,4BCK,4BCM,4BCN,4BCO,4BCP,4BCQ,4BGH,4BZD,4CFM,4CFN,4CFU,4CFV,4CFW,4CFX,4D1X,4D1Z,4EK3,4EK4,4EK5,4EK6,4EK8,4EOQ,4EOR,4EOS,4ERW,4EZ3,4EZ7,4FKG,4FKI,4FKJ,4FKL,4FKO,4FKP,4FKQ,4FKR,4FKS,4FKT,4FKU,4FKV,4FKW,4FX3,4GCJ,4I3Z,4II5,4KD1,4LYN,4NJ3,4RJ3,5A14,5AND,5ANE,5ANG,5ANI,5ANJ,5ANK,5ANO,5CYI,5D1J,5FP5,5FP6,5IEV,5IEX,5IEY,5IF1,5JQ5,5JQ8,5K4J,5L2W,5LMK,5MHQ,5NEV,5OO0,5OSJ,5UQ1,5UQ2,5UQ3,6ATH,6GUB,6GUC,6GUE,6GUF,6GUH,6GUK,6GVA,6INL,6JGM,6OQI,6P3W,6Q3B,6Q3C,6Q3F,6Q48,6Q49,6Q4A,6Q4B,6Q4C,6Q4D,6Q4E,6Q4F,6Q4H,6Q4J,6Q4K,6RIJ,6SG4,7ACK,7B5L,7B5R,7B7S,7E34,7KJS,7M2F,7NVQ

> <UniProt (SwissProt) Recommended Name of Target Chain>
Cyclin-dependent kinase 2

> <UniProt (SwissProt) Entry Name of Target Chain>
CDK2_HUMAN

> <UniProt (SwissProt) Primary ID of Target Chain>
P24941

> <UniProt (SwissProt) Secondary ID(s) of Target Chain>
A8K7C6,O75100

> <UniProt (SwissProt) Alternative ID(s) of Target Chain>


> <UniProt (TrEMBL) Submitted Name of Target Chain>


> <UniProt (TrEMBL) Entry Name of Target Chain>


> <UniProt (TrEMBL) Primary ID of Target Chain>
A0A024RB77

> <UniProt (TrEMBL) Secondary ID(s) of Target Chain>


> <UniProt (TrEMBL) Alternative ID(s) of Target Chain>


$$$$
BindingDB_50444930_mol_1

Vconf v2.0 Academic SN VC001-00000579
 55 58  0  0  0  0  0  0  0  0999 V2000
    5.8180  -15.7210    0.5790 C   0  0  0  0  0  0  0  0  0  0  0
    5.6370  -16.4790   -0.5960 C   0  0  0  0  0  0  0  0  0  0  0
    5.1430  -17.7880   -0.5350 C   0  0  0  0  0  0  0  0  0  0  0
    5.4820  -16.3170    1.8180 C   0  0  0  0  0  0  0  0  0  0  0
    4.9790  -17.6400    1.9210 C   0  0  0  0  0  0  0  0  0  0  0
    4.8220  -18.3600    0.7050 C   0  0  0  0  0  0  0  0  0  0  0
    4.3560  -19.6290    0.7100 N   0  0  0  0  0  0  0  0  0  0  0
    4.0140  -20.2940    1.8380 C   0  0  0  0  0  0  0  0  0  0  0
    4.1450  -19.6280    3.0690 C   0  0  0  0  0  0  0  0  0  0  0
    4.6260  -18.2970    3.1420 C   0  0  0  0  0  0  0  0  0  0  0
    6.3280  -14.4010    0.4720 C   0  0  0  0  0  0  0  0  0  0  0
    4.7220  -17.7140    4.4450 C   0  0  0  0  0  0  0  0  0  0  0
    3.5460  -21.6200    1.7420 C   0  0  0  0  0  0  0  0  0  0  0
    3.4430  -22.2030    0.5260 N   0  0  0  0  0  0  0  0  0  0  0
    3.2230  -22.2700    2.7640 O   0  0  0  0  0  0  0  0  0  0  0
    2.9840  -23.5360    0.3120 C   0  0  2  0  0  0  0  0  0  0  0
    3.9290  -24.5010    0.8230 C   0  0  0  0  0  0  0  0  0  0  0
    2.7840  -23.7720   -1.2030 C   0  0  0  0  0  0  0  0  0  0  0
    1.7620  -22.8780   -1.7870 C   0  0  0  0  0  0  0  0  0  0  0
    5.1830  -24.4840    0.3720 O   0  0  0  0  0  0  0  0  0  0  0
    3.5610  -25.3240    1.6500 O   0  0  0  0  0  0  0  0  0  0  0
    6.1350  -25.4090    0.8980 C   0  0  0  0  0  0  0  0  0  0  0
    0.4110  -22.9940   -1.3980 C   0  0  0  0  0  0  0  0  0  0  0
   -0.5640  -22.1440   -1.9460 C   0  0  0  0  0  0  0  0  0  0  0
   -0.1980  -21.1710   -2.8910 C   0  0  0  0  0  0  0  0  0  0  0
    1.1450  -21.0500   -3.2880 C   0  0  0  0  0  0  0  0  0  0  0
    2.1200  -21.9010   -2.7380 C   0  0  0  0  0  0  0  0  0  0  0
   -1.1410  -20.3570   -3.4140 O   0  0  0  0  0  0  0  0  0  0  0
    6.5730  -13.5180    1.5280 C   0  0  0  0  0  0  0  0  0  0  0
    7.0790  -12.2980    1.1080 C   0  0  0  0  0  0  0  0  0  0  0
    7.2220  -12.2440   -0.2690 C   0  0  0  0  0  0  0  0  0  0  0
    6.7320  -13.7010   -1.0660 S   0  0  0  0  0  0  0  0  0  0  0
    5.1250  -16.5520    4.6600 O   0  0  0  0  0  0  0  0  0  0  0
    4.3830  -18.3710    5.5690 N   0  0  0  0  0  0  0  0  0  0  0
    5.8650  -16.0880   -1.5110 H   0  0  0  0  0  0  0  0  0  0  0
    5.0210  -18.3240   -1.3950 H   0  0  0  0  0  0  0  0  0  0  0
    5.6140  -15.7630    2.6580 H   0  0  0  0  0  0  0  0  0  0  0
    3.8840  -20.1310    3.9190 H   0  0  0  0  0  0  0  0  0  0  0
    3.6790  -21.6690   -0.2490 H   0  0  0  0  0  0  0  0  0  0  0
    2.0260  -23.6740    0.8200 H   0  0  0  0  0  0  0  0  0  0  0
    3.7430  -23.6270   -1.7060 H   0  0  0  0  0  0  0  0  0  0  0
    2.4740  -24.8060   -1.3670 H   0  0  0  0  0  0  0  0  0  0  0
    7.0970  -25.2450    0.4140 H   0  0  0  0  0  0  0  0  0  0  0
    6.2450  -25.2580    1.9730 H   0  0  0  0  0  0  0  0  0  0  0
    5.8080  -26.4320    0.7070 H   0  0  0  0  0  0  0  0  0  0  0
    0.1360  -23.7000   -0.7140 H   0  0  0  0  0  0  0  0  0  0  0
   -1.5390  -22.2350   -1.6580 H   0  0  0  0  0  0  0  0  0  0  0
    1.4150  -20.3450   -3.9740 H   0  0  0  0  0  0  0  0  0  0  0
    3.0930  -21.8050   -3.0320 H   0  0  0  0  0  0  0  0  0  0  0
   -0.8050  -19.7110   -4.0710 H   0  0  0  0  0  0  0  0  0  0  0
    6.4050  -13.7330    2.5110 H   0  0  0  0  0  0  0  0  0  0  0
    7.3190  -11.5310    1.7380 H   0  0  0  0  0  0  0  0  0  0  0
    7.5800  -11.4280   -0.7650 H   0  0  0  0  0  0  0  0  0  0  0
    4.4690  -17.9240    6.4250 H   0  0  0  0  0  0  0  0  0  0  0
    4.0560  -19.2820    5.5310 H   0  0  0  0  0  0  0  0  0  0  0
  1  2  2  0  0  0  0
  1  4  1  0  0  0  0
  1 11  1  0  0  0  0
  2  3  1  0  0  0  0
  2 35  1  0  0  0  0
  3  6  2  0  0  0  0
  3 36  1  0  0  0  0
  4  5  2  0  0  0  0
  4 37  1  0  0  0  0
  5  6  1  0  0  0  0
  5 10  1  0  0  0  0
  6  7  1  0  0  0  0
  7  8  2  0  0  0  0
  8  9  1  0  0  0  0
  8 13  1  0  0  0  0
  9 10  2  0  0  0  0
  9 38  1  0  0  0  0
 10 12  1  0  0  0  0
 11 29  2  0  0  0  0
 11 32  1  0  0  0  0
 12 33  2  0  0  0  0
 12 34  1  0  0  0  0
 13 14  1  0  0  0  0
 13 15  2  0  0  0  0
 16 14  1  1  0  0  0
 14 39  1  0  0  0  0
 16 17  1  0  0  0  0
 16 18  1  0  0  0  0
 16 40  1  0  0  0  0
 17 20  1  0  0  0  0
 17 21  2  0  0  0  0
 18 19  1  0  0  0  0
 18 41  1  0  0  0  0
 18 42  1  0  0  0  0
 19 23  2  0  0  0  0
 19 27  1  0  0  0  0
 20 22  1  0  0  0  0
 22 43  1  0  0  0  0
 22 44  1  0  0  0  0
 22 45  1  0  0  0  0
 23 24  1  0  0  0  0
 23 46  1  0  0  0  0
 24 25  2  0  0  0  0
 24 47  1  0  0  0  0
 25 26  1  0  0  0  0
 25 28  1  0  0  0  0
 26 27  2  0  0  0  0
 26 48  1  0  0  0  0
 27 49  1  0  0  0  0
 28 50  1  0  0  0  0
 29 30  1  0  0  0  0
 29 51  1  0  0  0  0
 30 31  2  0  0  0  0
 30 52  1  0  0  0  0
 31 32  1  0  0  0  0
 31 53  1  0  0  0  0
 34 54  1  0  0  0  0
 34 55  1  0  0  0  0
M  END
> <From>
www.bindingDB.org

> <BindingDB Reactant_set_id>
51087227

> <Ligand InChI>
InChI=1S/C25H21N3O5S/c1-33-25(32)21(11-14-4-7-16(29)8-5-14)28-24(31)20-13-18(23(26)30)17-12-15(6-9-19(17)27-20)22-3-2-10-34-22/h2-10,12-13,21,29H,11H2,1H3,(H2,26,30)(H,28,31)/t21-/m0/s1

> <Ligand InChI Key>
DQIGVDHGDBGFJN-NRFANRHFSA-N

> <BindingDB MonomerID>
50444930

> <BindingDB Ligand Name>
CHEMBL3099766

> <Target Name Assigned by Curator or DataSource>
Cyclin-dependent kinase 2

> <Target Source Organism According to Curator or DataSource>
Homo sapiens

> <Ki (nM)>
>40000

> <IC50 (nM)>


> <Kd (nM)>


> <EC50 (nM)>


> <kon (M-1-s-1)>


> <koff (s-1)>


> <pH>


> <Temp C>


> <Curation/DataSource>
ChEMBL

> <Article DOI>
10.1016/j.bmcl.2013.11.041

> <PMID>
24332088

> <PubChem AID>


> <Patent Number>


> <Authors>
Deng, Y; Shipps, GW; Zhao, L; Siddiqui, MA; Popovici-Muller, J; Curran, PJ; Duca, JS; Hruza, AW; Fischmann, TO; Madison, VS; Zhang, R; McNemar, CW; Mayhood, TW; Syto, R; Annis, A; Kirschmeier, P; Lees, EM; Parry, DA; Windsor, WT

> <Institution>
Merck Research Laboratories

> <Link to Ligand in BindingDB>
http://www.bindingdb.org/bind/chemsearch/marvin/MolStructure.jsp?monomerid=50444930

> <Link to Ligand-Target Pair in BindingDB>
http://www.bindingdb.org/jsp/dbsearch/PrimarySearch_ki.jsp?energyterm=kJ/mole&tag=pol&polymerid=796&target=Cyclin-dependent+kinase+2&column=ki&startPg=0&Increment=50&submit=Search

> <Link to Ligand-Target Pair in BindingDB>
http://www.bindingdb.org/jsp/dbsearch/PrimarySearch_ki.jsp?energyterm=kJ/mole&tag=r21&monomerid=50444930&enzyme=Cyclin-dependent+kinase+2&column=ki&startPg=0&Increment=50&submit=Search

> <Ligand HET ID in PDB>


> <PDB ID(s) for Ligand-Target Complex>


> <PubChem CID>
57602368

> <PubChem SID>
194942826

> <ChEBI ID of Ligand>


> <ChEMBL ID of Ligand>
CHEMBL3099766

> <DrugBank ID of Ligand>


> <IUPHAR_GRAC ID of Ligand>


> <KEGG ID of Ligand>


> <ZINC ID of Ligand>


> <Number of Protein Chains in Target (bigger than 1 implies a multichain complex)>
1

> <BindingDB Target Chain Sequence>
MENFQKVEKIGEGTYGVVYKARNKLTGEVVALKKIRLDTETEGVPSTAIREISLLKELNHPNIVKLLDVIHTENKLYLVFEFLHQDLKKFMDASALTGIPLPLIKSYLFQLLQGLAFCHSHRVLHRDLKPQNLLINTEGAIKLADFGLARAFGVPVRTYTHEVVTLWYRAPEILLGCKYYSTAVDIWSLGCIFAEMVTRRALFPGDSEIDQLFRIFRTLGTPDEVVWPGVTSMPDYKPSFPKWARQDFSKVVPPLDEDGRSLLSQMLHYDPNKRISAKAALAHPFFQDVTKPVPHLRL

> <PDB ID(s) of Target Chain>
1CKP,1DI8,1DM2,1E1V,1E1X,1E9H,1F5Q,1FIN,1FQ1,1FVT,1FVV,1G5S,1GIH,1GY3,1GZ8,1H00,1H01,1H07,1H08,1H0V,1H0W,1H1P,1H1Q,1H1R,1H1S,1H24,1H25,1H26,1H27,1H28,1HCK,1HCL,1JST,1JSU,1JSV,1JVP,1KE5,1KE6,1KE7,1KE8,1KE9,1OGU,1OI9,1OIQ,1OIR,1OIU,1OIY,1OKV,1OKW,1OL1,1OL2,1P2A,1P5E,1PF8,1PKD,1PW2,1PXI,1PXJ,1PXK,1PXL,1PXM,1PXN,1PXO,1PXP,1PYE,1QMZ,1R78,1URC,1URW,1V1K,1VYW,1VYZ,1W0X,1W8C,1W98,1WCC,1Y8Y,1Y91,1YKR,2A0C,2A4L,2B52,2B53,2B54,2B55,2BHE,2BHH,2BKZ,2BPM,2BTR,2BTS,2C4G,2C5N,2C5O,2C5V,2C5X,2C5Y,2C68,2C69,2C6I,2C6K,2C6L,2C6M,2C6O,2C6T,2CCH,2CCI,2CJM,2CLX,2DUV,2EXM,2FVD,2G9X,2I40,2J9M,2JGZ,2R3F,2R3G,2R3H,2R3I,2R3J,2R3K,2R3L,2R3M,2R3N,2R3O,2R3P,2R3Q,2R3R,2R64,2UUE,2UZB,2UZD,2UZE,2UZL,2UZN,2UZO,2V0D,2V22,2VTA,2VTH,2VTI,2VTJ,2VTL,2VTM,2VTN,2VTO,2VTP,2VTQ,2VTR,2VTS,2VTT,2VU3,2VV9,2W05,2W06,2W17,2W1H,2WEV,2WFY,2WHB,2WIH,2WIP,2WMA,2WMB,2WPA,2WXV,2X1N,2XMY,2XNB,3BHT,3BHU,3BHV,3DDP,3DDQ,3DOG,3EID,3EJ1,3EOC,3EZR,3EZV,3F5X,3FZ1,3IG7,3IGG,3LE6,3LFN,3LFQ,3LFS,3MY5,3NS9,3PJ8,3PXF,3PXQ,3PXR,3PXY,3PXZ,3PY0,3PY1,3QHR,3QHW,3QL8,3QQF,3QQG,3QQH,3QQJ,3QQK,3QQL,3QRT,3QRU,3QTQ,3QTR,3QTS,3QTU,3QTW,3QTX,3QTZ,3QU0,3QWJ,3QWK,3QX2,3QX4,3QXO,3QXP,3QZF,3QZG,3QZH,3QZI,3R1Q,3R1S,3R1Y,3R28,3R6X,3R71,3R73,3R7E,3R7I,3R7U,3R7V,3R7Y,3R83,3R8L,3R8M,3R8P,3R8U,3R8V,3R8Z,3R9D,3R9H,3R9N,3R9O,3RAH,3RAI,3RAK,3RAL,3RJC,3RK5,3RK7,3RK9,3RKB,3RM6,3RM7,3RMF,3RNI,3ROY,3RPO,3RPR,3RPV,3RPY,3RZB,3S00,3S0O,3S1H,3S2P,3SQQ,3SW4,3SW7,3TI1,3TIY,3TIZ,3TNW,3ULI,3UNJ,3UNK,3WBL,4ACM,4BCK,4BCM,4BCN,4BCO,4BCP,4BCQ,4BGH,4BZD,4CFM,4CFN,4CFU,4CFV,4CFW,4CFX,4D1X,4D1Z,4EK3,4EK4,4EK5,4EK6,4EK8,4EOQ,4EOR,4EOS,4ERW,4EZ3,4EZ7,4FKG,4FKI,4FKJ,4FKL,4FKO,4FKP,4FKQ,4FKR,4FKS,4FKT,4FKU,4FKV,4FKW,4FX3,4GCJ,4I3Z,4II5,4KD1,4LYN,4NJ3,4RJ3,5A14,5AND,5ANE,5ANG,5ANI,5ANJ,5ANK,5ANO,5CYI,5D1J,5FP5,5FP6,5IEV,5IEX,5IEY,5IF1,5JQ5,5JQ8,5K4J,5L2W,5LMK,5MHQ,5NEV,5OO0,5OSJ,5UQ1,5UQ2,5UQ3,6ATH,6GUB,6GUC,6GUE,6GUF,6GUH,6GUK,6GVA,6INL,6JGM,6OQI,6P3W,6Q3B,6Q3C,6Q3F,6Q48,6Q49,6Q4A,6Q4B,6Q4C,6Q4D,6Q4E,6Q4F,6Q4H,6Q4J,6Q4K,6RIJ,6SG4,7ACK,7B5L,7B5R,7B7S,7E34,7KJS,7M2F,7NVQ

> <UniProt (SwissProt) Recommended Name of Target Chain>
Cyclin-dependent kinase 2

> <UniProt (SwissProt) Entry Name of Target Chain>
CDK2_HUMAN

> <UniProt (SwissProt) Primary ID of Target Chain>
P24941

> <UniProt (SwissProt) Secondary ID(s) of Target Chain>
A8K7C6,O75100

> <UniProt (SwissProt) Alternative ID(s) of Target Chain>


> <UniProt (TrEMBL) Submitted Name of Target Chain>


> <UniProt (TrEMBL) Entry Name of Target Chain>


> <UniProt (TrEMBL) Primary ID of Target Chain>
A0A024RB77

> <UniProt (TrEMBL) Secondary ID(s) of Target Chain>


> <UniProt (TrEMBL) Alternative ID(s) of Target Chain>


$$$$
BindingDB_50444927_mol_1

Vconf v2.0 Academic SN VC001-00000579
 63 66  0  0  0  0  0  0  0  0999 V2000
    4.6000   -2.3810    0.3420 C   0  0  0  0  0  0  0  0  0  0  0
    4.6130   -3.5980   -0.3770 C   0  0  0  0  0  0  0  0  0  0  0
    4.9090   -4.8130    0.2580 C   0  0  0  0  0  0  0  0  0  0  0
    4.9060   -2.4230    1.7250 C   0  0  0  0  0  0  0  0  0  0  0
    5.1980   -3.6370    2.3900 C   0  0  0  0  0  0  0  0  0  0  0
    5.1980   -4.8350    1.6310 C   0  0  0  0  0  0  0  0  0  0  0
    5.4720   -6.0180    2.2290 N   0  0  0  0  0  0  0  0  0  0  0
    5.7580   -6.1450    3.5490 C   0  0  0  0  0  0  0  0  0  0  0
    5.7810   -4.9830    4.3450 C   0  0  0  0  0  0  0  0  0  0  0
    5.5000   -3.7240    3.7740 C   0  0  0  0  0  0  0  0  0  0  0
    4.2820   -1.1490   -0.3030 C   0  0  0  0  0  0  0  0  0  0  0
    5.5310   -2.6260    4.6080 C   0  0  0  0  0  0  0  0  0  0  0
    4.6010   -1.8360    4.6570 O   0  0  0  0  0  0  0  0  0  0  0
    6.5510   -2.4280    5.4230 O   0  0  0  0  0  0  0  0  0  0  0
    5.9930   -7.4280    4.0800 C   0  0  0  0  0  0  0  0  0  0  0
    6.0870   -8.4830    3.2390 N   0  0  0  0  0  0  0  0  0  0  0
    6.0770   -7.6130    5.3160 O   0  0  0  0  0  0  0  0  0  0  0
    6.2180   -9.8400    3.6580 C   0  0  2  0  0  0  0  0  0  0  0
    7.4760  -10.0750    4.3270 C   0  0  0  0  0  0  0  0  0  0  0
    6.1100  -10.7660    2.4250 C   0  0  0  0  0  0  0  0  0  0  0
    4.8320  -10.5940    1.7000 C   0  0  0  0  0  0  0  0  0  0  0
    8.6140   -9.8130    3.6870 O   0  0  0  0  0  0  0  0  0  0  0
    7.4750  -10.5250    5.4650 O   0  0  0  0  0  0  0  0  0  0  0
    9.8580   -9.9900    4.3650 C   0  0  0  0  0  0  0  0  0  0  0
    4.8120  -10.0610    0.3960 C   0  0  0  0  0  0  0  0  0  0  0
    3.5930   -9.8790   -0.2790 C   0  0  0  0  0  0  0  0  0  0  0
    2.3760  -10.2270    0.3340 C   0  0  0  0  0  0  0  0  0  0  0
    2.3960  -10.7630    1.6390 C   0  0  0  0  0  0  0  0  0  0  0
    3.6150  -10.9460    2.3140 C   0  0  0  0  0  0  0  0  0  0  0
    4.7070   -0.8860   -1.6260 C   0  0  0  0  0  0  0  0  0  0  0
    4.3910    0.3260   -2.2590 C   0  0  0  0  0  0  0  0  0  0  0
    3.6410    1.2970   -1.5800 C   0  0  0  0  0  0  0  0  0  0  0
    3.1930    1.0740   -0.2610 C   0  0  0  0  0  0  0  0  0  0  0
    3.5250   -0.1530    0.3590 C   0  0  0  0  0  0  0  0  0  0  0
    2.3920    2.1230    0.4260 C   0  0  0  0  0  0  0  0  0  0  0
    2.0040    1.7900    1.7030 F   0  0  0  0  0  0  0  0  0  0  0
    3.1170    3.2870    0.5190 F   0  0  0  0  0  0  0  0  0  0  0
    1.2450    2.3810   -0.2850 F   0  0  0  0  0  0  0  0  0  0  0
    1.2350  -10.0180   -0.3860 O   0  0  0  0  0  0  0  0  0  0  0
   -0.0660  -10.3060    0.1340 C   0  0  0  0  0  0  0  0  0  0  0
    4.3920   -3.6130   -1.3740 H   0  0  0  0  0  0  0  0  0  0  0
    4.9090   -5.6810   -0.2800 H   0  0  0  0  0  0  0  0  0  0  0
    4.9210   -1.5500    2.2530 H   0  0  0  0  0  0  0  0  0  0  0
    5.9930   -5.0540    5.3430 H   0  0  0  0  0  0  0  0  0  0  0
    6.4590   -1.6280    5.9810 H   0  0  0  0  0  0  0  0  0  0  0
    6.0110   -8.3040    2.2890 H   0  0  0  0  0  0  0  0  0  0  0
    5.4050  -10.0780    4.3480 H   0  0  0  0  0  0  0  0  0  0  0
    6.9490  -10.5550    1.7570 H   0  0  0  0  0  0  0  0  0  0  0
    6.1920  -11.8050    2.7480 H   0  0  0  0  0  0  0  0  0  0  0
   10.6740   -9.7360    3.6890 H   0  0  0  0  0  0  0  0  0  0  0
    9.9010   -9.3360    5.2380 H   0  0  0  0  0  0  0  0  0  0  0
    9.9670  -11.0280    4.6830 H   0  0  0  0  0  0  0  0  0  0  0
    5.6830   -9.7960   -0.0640 H   0  0  0  0  0  0  0  0  0  0  0
    3.5910   -9.4900   -1.2220 H   0  0  0  0  0  0  0  0  0  0  0
    1.5260  -11.0220    2.1030 H   0  0  0  0  0  0  0  0  0  0  0
    3.6130  -11.3340    3.2590 H   0  0  0  0  0  0  0  0  0  0  0
    5.2610   -1.5730   -2.1400 H   0  0  0  0  0  0  0  0  0  0  0
    4.7080    0.5020   -3.2130 H   0  0  0  0  0  0  0  0  0  0  0
    3.4180    2.1750   -2.0510 H   0  0  0  0  0  0  0  0  0  0  0
    3.1940   -0.3260    1.3090 H   0  0  0  0  0  0  0  0  0  0  0
   -0.8110  -10.0420   -0.6170 H   0  0  0  0  0  0  0  0  0  0  0
   -0.1560  -11.3690    0.3630 H   0  0  0  0  0  0  0  0  0  0  0
   -0.2510   -9.7200    1.0370 H   0  0  0  0  0  0  0  0  0  0  0
  1  2  2  0  0  0  0
  1  4  1  0  0  0  0
  1 11  1  0  0  0  0
  2  3  1  0  0  0  0
  2 41  1  0  0  0  0
  3  6  2  0  0  0  0
  3 42  1  0  0  0  0
  4  5  2  0  0  0  0
  4 43  1  0  0  0  0
  5  6  1  0  0  0  0
  5 10  1  0  0  0  0
  6  7  1  0  0  0  0
  7  8  2  0  0  0  0
  8  9  1  0  0  0  0
  8 15  1  0  0  0  0
  9 10  2  0  0  0  0
  9 44  1  0  0  0  0
 10 12  1  0  0  0  0
 11 30  2  0  0  0  0
 11 34  1  0  0  0  0
 12 13  2  0  0  0  0
 12 14  1  0  0  0  0
 14 45  1  0  0  0  0
 15 16  1  0  0  0  0
 15 17  2  0  0  0  0
 18 16  1  1  0  0  0
 16 46  1  0  0  0  0
 18 19  1  0  0  0  0
 18 20  1  0  0  0  0
 18 47  1  0  0  0  0
 19 22  1  0  0  0  0
 19 23  2  0  0  0  0
 20 21  1  0  0  0  0
 20 48  1  0  0  0  0
 20 49  1  0  0  0  0
 21 25  2  0  0  0  0
 21 29  1  0  0  0  0
 22 24  1  0  0  0  0
 24 50  1  0  0  0  0
 24 51  1  0  0  0  0
 24 52  1  0  0  0  0
 25 26  1  0  0  0  0
 25 53  1  0  0  0  0
 26 27  2  0  0  0  0
 26 54  1  0  0  0  0
 27 28  1  0  0  0  0
 27 39  1  0  0  0  0
 28 29  2  0  0  0  0
 28 55  1  0  0  0  0
 29 56  1  0  0  0  0
 30 31  1  0  0  0  0
 30 57  1  0  0  0  0
 31 32  2  0  0  0  0
 31 58  1  0  0  0  0
 32 33  1  0  0  0  0
 32 59  1  0  0  0  0
 33 34  2  0  0  0  0
 33 35  1  0  0  0  0
 34 60  1  0  0  0  0
 35 36  1  0  0  0  0
 35 37  1  0  0  0  0
 35 38  1  0  0  0  0
 39 40  1  0  0  0  0
 40 61  1  0  0  0  0
 40 62  1  0  0  0  0
 40 63  1  0  0  0  0
M  END
> <From>
www.bindingDB.org

> <BindingDB Reactant_set_id>
50077182

> <Ligand InChI>
InChI=1S/C29H23F3N2O6/c1-39-20-9-6-16(7-10-20)12-25(28(38)40-2)34-26(35)24-15-22(27(36)37)21-14-18(8-11-23(21)33-24)17-4-3-5-19(13-17)29(30,31)32/h3-11,13-15,25H,12H2,1-2H3,(H,34,35)(H,36,37)/t25-/m0/s1

> <Ligand InChI Key>
PYEAMMSYRJERMP-VWLOTQADSA-N

> <BindingDB MonomerID>
50444927

> <BindingDB Ligand Name>
CHEMBL3099744

> <Target Name Assigned by Curator or DataSource>
Cyclin-dependent kinase 2

> <Target Source Organism According to Curator or DataSource>
Homo sapiens

> <Ki (nM)>
>40000

> <IC50 (nM)>


> <Kd (nM)>


> <EC50 (nM)>


> <kon (M-1-s-1)>


> <koff (s-1)>


> <pH>


> <Temp C>


> <Curation/DataSource>
ChEMBL

> <Article DOI>
10.1016/j.bmcl.2013.11.041

> <PMID>
24332088

> <PubChem AID>


> <Patent Number>


> <Authors>
Deng, Y; Shipps, GW; Zhao, L; Siddiqui, MA; Popovici-Muller, J; Curran, PJ; Duca, JS; Hruza, AW; Fischmann, TO; Madison, VS; Zhang, R; McNemar, CW; Mayhood, TW; Syto, R; Annis, A; Kirschmeier, P; Lees, EM; Parry, DA; Windsor, WT

> <Institution>
Merck Research Laboratories

> <Link to Ligand in BindingDB>
http://www.bindingdb.org/bind/chemsearch/marvin/MolStructure.jsp?monomerid=50444927

> <Link to Ligand-Target Pair in BindingDB>
http://www.bindingdb.org/jsp/dbsearch/PrimarySearch_ki.jsp?energyterm=kJ/mole&tag=pol&polymerid=796&target=Cyclin-dependent+kinase+2&column=ki&startPg=0&Increment=50&submit=Search

> <Link to Ligand-Target Pair in BindingDB>
http://www.bindingdb.org/jsp/dbsearch/PrimarySearch_ki.jsp?energyterm=kJ/mole&tag=r21&monomerid=50444927&enzyme=Cyclin-dependent+kinase+2&column=ki&startPg=0&Increment=50&submit=Search

> <Ligand HET ID in PDB>


> <PDB ID(s) for Ligand-Target Complex>


> <PubChem CID>
57602215

> <PubChem SID>
194942823

> <ChEBI ID of Ligand>


> <ChEMBL ID of Ligand>
CHEMBL3099744

> <DrugBank ID of Ligand>


> <IUPHAR_GRAC ID of Ligand>


> <KEGG ID of Ligand>


> <ZINC ID of Ligand>


> <Number of Protein Chains in Target (bigger than 1 implies a multichain complex)>
1

> <BindingDB Target Chain Sequence>
MENFQKVEKIGEGTYGVVYKARNKLTGEVVALKKIRLDTETEGVPSTAIREISLLKELNHPNIVKLLDVIHTENKLYLVFEFLHQDLKKFMDASALTGIPLPLIKSYLFQLLQGLAFCHSHRVLHRDLKPQNLLINTEGAIKLADFGLARAFGVPVRTYTHEVVTLWYRAPEILLGCKYYSTAVDIWSLGCIFAEMVTRRALFPGDSEIDQLFRIFRTLGTPDEVVWPGVTSMPDYKPSFPKWARQDFSKVVPPLDEDGRSLLSQMLHYDPNKRISAKAALAHPFFQDVTKPVPHLRL

> <PDB ID(s) of Target Chain>
1CKP,1DI8,1DM2,1E1V,1E1X,1E9H,1F5Q,1FIN,1FQ1,1FVT,1FVV,1G5S,1GIH,1GY3,1GZ8,1H00,1H01,1H07,1H08,1H0V,1H0W,1H1P,1H1Q,1H1R,1H1S,1H24,1H25,1H26,1H27,1H28,1HCK,1HCL,1JST,1JSU,1JSV,1JVP,1KE5,1KE6,1KE7,1KE8,1KE9,1OGU,1OI9,1OIQ,1OIR,1OIU,1OIY,1OKV,1OKW,1OL1,1OL2,1P2A,1P5E,1PF8,1PKD,1PW2,1PXI,1PXJ,1PXK,1PXL,1PXM,1PXN,1PXO,1PXP,1PYE,1QMZ,1R78,1URC,1URW,1V1K,1VYW,1VYZ,1W0X,1W8C,1W98,1WCC,1Y8Y,1Y91,1YKR,2A0C,2A4L,2B52,2B53,2B54,2B55,2BHE,2BHH,2BKZ,2BPM,2BTR,2BTS,2C4G,2C5N,2C5O,2C5V,2C5X,2C5Y,2C68,2C69,2C6I,2C6K,2C6L,2C6M,2C6O,2C6T,2CCH,2CCI,2CJM,2CLX,2DUV,2EXM,2FVD,2G9X,2I40,2J9M,2JGZ,2R3F,2R3G,2R3H,2R3I,2R3J,2R3K,2R3L,2R3M,2R3N,2R3O,2R3P,2R3Q,2R3R,2R64,2UUE,2UZB,2UZD,2UZE,2UZL,2UZN,2UZO,2V0D,2V22,2VTA,2VTH,2VTI,2VTJ,2VTL,2VTM,2VTN,2VTO,2VTP,2VTQ,2VTR,2VTS,2VTT,2VU3,2VV9,2W05,2W06,2W17,2W1H,2WEV,2WFY,2WHB,2WIH,2WIP,2WMA,2WMB,2WPA,2WXV,2X1N,2XMY,2XNB,3BHT,3BHU,3BHV,3DDP,3DDQ,3DOG,3EID,3EJ1,3EOC,3EZR,3EZV,3F5X,3FZ1,3IG7,3IGG,3LE6,3LFN,3LFQ,3LFS,3MY5,3NS9,3PJ8,3PXF,3PXQ,3PXR,3PXY,3PXZ,3PY0,3PY1,3QHR,3QHW,3QL8,3QQF,3QQG,3QQH,3QQJ,3QQK,3QQL,3QRT,3QRU,3QTQ,3QTR,3QTS,3QTU,3QTW,3QTX,3QTZ,3QU0,3QWJ,3QWK,3QX2,3QX4,3QXO,3QXP,3QZF,3QZG,3QZH,3QZI,3R1Q,3R1S,3R1Y,3R28,3R6X,3R71,3R73,3R7E,3R7I,3R7U,3R7V,3R7Y,3R83,3R8L,3R8M,3R8P,3R8U,3R8V,3R8Z,3R9D,3R9H,3R9N,3R9O,3RAH,3RAI,3RAK,3RAL,3RJC,3RK5,3RK7,3RK9,3RKB,3RM6,3RM7,3RMF,3RNI,3ROY,3RPO,3RPR,3RPV,3RPY,3RZB,3S00,3S0O,3S1H,3S2P,3SQQ,3SW4,3SW7,3TI1,3TIY,3TIZ,3TNW,3ULI,3UNJ,3UNK,3WBL,4ACM,4BCK,4BCM,4BCN,4BCO,4BCP,4BCQ,4BGH,4BZD,4CFM,4CFN,4CFU,4CFV,4CFW,4CFX,4D1X,4D1Z,4EK3,4EK4,4EK5,4EK6,4EK8,4EOQ,4EOR,4EOS,4ERW,4EZ3,4EZ7,4FKG,4FKI,4FKJ,4FKL,4FKO,4FKP,4FKQ,4FKR,4FKS,4FKT,4FKU,4FKV,4FKW,4FX3,4GCJ,4I3Z,4II5,4KD1,4LYN,4NJ3,4RJ3,5A14,5AND,5ANE,5ANG,5ANI,5ANJ,5ANK,5ANO,5CYI,5D1J,5FP5,5FP6,5IEV,5IEX,5IEY,5IF1,5JQ5,5JQ8,5K4J,5L2W,5LMK,5MHQ,5NEV,5OO0,5OSJ,5UQ1,5UQ2,5UQ3,6ATH,6GUB,6GUC,6GUE,6GUF,6GUH,6GUK,6GVA,6INL,6JGM,6OQI,6P3W,6Q3B,6Q3C,6Q3F,6Q48,6Q49,6Q4A,6Q4B,6Q4C,6Q4D,6Q4E,6Q4F,6Q4H,6Q4J,6Q4K,6RIJ,6SG4,7ACK,7B5L,7B5R,7B7S,7E34,7KJS,7M2F,7NVQ

> <UniProt (SwissProt) Recommended Name of Target Chain>
Cyclin-dependent kinase 2

> <UniProt (SwissProt) Entry Name of Target Chain>
CDK2_HUMAN

> <UniProt (SwissProt) Primary ID of Target Chain>
P24941

> <UniProt (SwissProt) Secondary ID(s) of Target Chain>
A8K7C6,O75100

> <UniProt (SwissProt) Alternative ID(s) of Target Chain>


> <UniProt (TrEMBL) Submitted Name of Target Chain>


> <UniProt (TrEMBL) Entry Name of Target Chain>


> <UniProt (TrEMBL) Primary ID of Target Chain>
A0A024RB77

> <UniProt (TrEMBL) Secondary ID(s) of Target Chain>


> <UniProt (TrEMBL) Alternative ID(s) of Target Chain>


$$$$
ttt_mol_1

Vconf v2.1
 50 52  0  0  0  0  0  0  0  0999 V2000
    1.7330    2.9850    1.1740 N   0  0  0  0  0  0  0  0  0  0  0
    0.8990    2.3630    0.3070 C   0  0  0  0  0  0  0  0  0  0  0
    0.2570    1.2530    0.8690 C   0  0  0  0  0  0  0  0  0  0  0
    0.7160    1.0150    2.5260 S   0  0  0  0  0  0  0  0  0  0  0
    1.7470    2.3920    2.3830 C   0  0  0  0  0  0  0  0  0  0  0
    0.6980    2.8230   -1.0740 C   0  0  0  0  0  0  0  0  0  0  0
    2.4400    2.7880    3.3460 O   0  0  0  0  0  0  0  0  0  0  0
   -0.6570    0.3630    0.2480 C   0  0  0  0  0  0  0  0  0  0  0
   -1.1890   -0.7000    1.0030 C   0  0  0  0  0  0  0  0  0  0  0
   -2.0730   -1.5850    0.3790 C   0  0  0  0  0  0  0  0  0  0  0
   -2.3970   -1.4060   -0.9200 N   0  0  0  0  0  0  0  0  0  0  0
   -1.9000   -0.3860   -1.6560 C   0  0  0  0  0  0  0  0  0  0  0
   -1.0390    0.4810   -1.0560 N   0  0  0  0  0  0  0  0  0  0  0
   -2.3260   -0.3600   -2.9460 N   0  0  0  0  0  0  0  0  0  0  0
   -2.0600    0.5130   -3.9570 C   0  0  0  0  0  0  0  0  0  0  0
   -1.0540    2.5100   -4.9600 C   0  0  0  0  0  0  0  0  0  0  0
   -1.2670    1.6750   -3.8510 C   0  0  0  0  0  0  0  0  0  0  0
   -2.6410    0.2150   -5.2060 C   0  0  0  0  0  0  0  0  0  0  0
   -2.4290    1.0440   -6.3210 C   0  0  0  0  0  0  0  0  0  0  0
   -1.6320    2.1960   -6.2020 C   0  0  0  0  0  0  0  0  0  0  0
   -1.3700    3.2380   -7.5670 S   0  0  0  0  0  0  0  0  0  0  0
    2.5140    4.1380    0.8550 C   0  0  0  0  0  0  0  0  0  0  0
    0.1710    3.6290   -7.5420 O   0  0  0  0  0  0  0  0  0  0  0
   -2.1430    2.6790   -8.8400 O   0  0  0  0  0  0  0  0  0  0  0
   -2.1080    4.6870   -7.1380 N   0  0  0  0  0  0  0  0  0  0  0
   -3.4160    5.0170   -7.5690 C   0  0  0  0  0  0  0  0  0  0  0
   -4.4580    4.0370   -7.0130 C   0  0  0  0  0  0  0  0  0  0  0
   -4.3730    3.9910   -5.5900 O   0  0  0  0  0  0  0  0  0  0  0
   -5.2900    3.1320   -4.9200 C   0  0  0  0  0  0  0  0  0  0  0
    0.9820    2.0270   -1.7630 H   0  0  0  0  0  0  0  0  0  0  0
   -0.3510    3.0830   -1.2120 H   0  0  0  0  0  0  0  0  0  0  0
    1.3010    3.7010   -1.2960 H   0  0  0  0  0  0  0  0  0  0  0
   -0.9460   -0.8410    1.9840 H   0  0  0  0  0  0  0  0  0  0  0
   -2.4690   -2.3670    0.9010 H   0  0  0  0  0  0  0  0  0  0  0
   -2.9170   -1.0920   -3.1830 H   0  0  0  0  0  0  0  0  0  0  0
   -0.4780    3.3470   -4.8640 H   0  0  0  0  0  0  0  0  0  0  0
   -0.8450    1.9270   -2.9680 H   0  0  0  0  0  0  0  0  0  0  0
   -3.2240   -0.6170   -5.3120 H   0  0  0  0  0  0  0  0  0  0  0
   -2.8590    0.8130   -7.2160 H   0  0  0  0  0  0  0  0  0  0  0
    3.1160    4.4660    1.7050 H   0  0  0  0  0  0  0  0  0  0  0
    3.1870    3.9070    0.0280 H   0  0  0  0  0  0  0  0  0  0  0
    1.8550    4.9580    0.5640 H   0  0  0  0  0  0  0  0  0  0  0
   -1.6160    5.3170   -6.5900 H   0  0  0  0  0  0  0  0  0  0  0
   -3.6570    6.0210   -7.2200 H   0  0  0  0  0  0  0  0  0  0  0
   -3.4510    5.0010   -8.6590 H   0  0  0  0  0  0  0  0  0  0  0
   -5.4520    4.3740   -7.3090 H   0  0  0  0  0  0  0  0  0  0  0
   -4.2850    3.0430   -7.4270 H   0  0  0  0  0  0  0  0  0  0  0
   -5.0950    3.1680   -3.8480 H   0  0  0  0  0  0  0  0  0  0  0
   -6.3120    3.4620   -5.1100 H   0  0  0  0  0  0  0  0  0  0  0
   -5.1670    2.1080   -5.2730 H   0  0  0  0  0  0  0  0  0  0  0
  1  2  1  0  0  0  0
  1  5  1  0  0  0  0
  1 22  1  0  0  0  0
  2  3  2  0  0  0  0
  2  6  1  0  0  0  0
  3  4  1  0  0  0  0
  3  8  1  0  0  0  0
  4  5  1  0  0  0  0
  5  7  2  0  0  0  0
  6 30  1  0  0  0  0
  6 31  1  0  0  0  0
  6 32  1  0  0  0  0
  8  9  2  0  0  0  0
  8 13  1  0  0  0  0
  9 10  1  0  0  0  0
  9 33  1  0  0  0  0
 10 11  2  0  0  0  0
 10 34  1  0  0  0  0
 11 12  1  0  0  0  0
 12 13  2  0  0  0  0
 12 14  1  0  0  0  0
 14 15  1  0  0  0  0
 14 35  1  0  0  0  0
 15 17  2  0  0  0  0
 15 18  1  0  0  0  0
 16 17  1  0  0  0  0
 16 20  2  0  0  0  0
 16 36  1  0  0  0  0
 17 37  1  0  0  0  0
 18 19  2  0  0  0  0
 18 38  1  0  0  0  0
 19 20  1  0  0  0  0
 19 39  1  0  0  0  0
 20 21  1  0  0  0  0
 21 23  2  0  0  0  0
 21 24  2  0  0  0  0
 21 25  1  0  0  0  0
 22 40  1  0  0  0  0
 22 41  1  0  0  0  0
 22 42  1  0  0  0  0
 25 26  1  0  0  0  0
 25 43  1  0  0  0  0
 26 27  1  0  0  0  0
 26 44  1  0  0  0  0
 26 45  1  0  0  0  0
 27 28  1  0  0  0  0
 27 46  1  0  0  0  0
 27 47  1  0  0  0  0
 28 29  1  0  0  0  0
 29 48  1  0  0  0  0
 29 49  1  0  0  0  0
 29 50  1  0  0  0  0
M  END
> <From>
www.bindingDB.org

> <BindingDB Reactant_set_id>
153788

> <Ligand InChI>
InChI=1S/C18H21N5O4S2/c1-12-16(28-18(24)23(12)2)15-8-9-19-17(22-15)21-13-4-6-14(7-5-13)29(25,26)20-10-11-27-3/h4-9,20H,10-11H2,1-3H3,(H,19,21,22)

> <Ligand InChI Key>
WQZVTNFUNLTGDW-UHFFFAOYSA-N

> <BindingDB MonomerID>
81438

> <BindingDB Ligand Name>
CDK Inhibitor, 11

> <Target Name Assigned by Curator or DataSource>
Cyclin-dependent kinase 2

> <Target Source Organism According to Curator or DataSource>
Homo sapiens

> <Ki (nM)>
 0.11

> <IC50 (nM)>


> <Kd (nM)>


> <EC50 (nM)>


> <kon (M-1-s-1)>


> <koff (s-1)>


> <pH>


> <Temp C>


> <Curation/DataSource>
Curated from the literature by BindingDB

> <Article DOI>
10.1016/j.chembiol.2010.07.016

> <PMID>
21035734

> <PubChem AID>


> <Patent Number>


> <Authors>
Wang, S; Griffiths, G; Midgley, CA; Barnett, AL; Cooper, M; Grabarek, J; Ingram, L; Jackson, W; Kontopidis, G; McClue, SJ; McInnes, C; McLachlan, J; Meades, C; Mezna, M; Stuart, I; Thomas, MP; Zheleva, DI; Lane, DP; Jackson, RC; Glover, DM; Blake, DG; Fischer, PM

> <Institution>
Cyclacel Limited

> <Link to Ligand in BindingDB>
http://www.bindingdb.org/bind/chemsearch/marvin/MolStructure.jsp?monomerid=81438

> <Link to Ligand-Target Pair in BindingDB>
http://www.bindingdb.org/jsp/dbsearch/PrimarySearch_ki.jsp?energyterm=kJ/mole&tag=pol&polymerid=796&target=Cyclin-dependent+kinase+2&column=ki&startPg=0&Increment=50&submit=Search

> <Link to Ligand-Target Pair in BindingDB>
http://www.bindingdb.org/jsp/dbsearch/PrimarySearch_ki.jsp?energyterm=kJ/mole&tag=r21&monomerid=81438&enzyme=Cyclin-dependent+kinase+2&column=ki&startPg=0&Increment=50&submit=Search

> <Ligand HET ID in PDB>
CDK

> <PDB ID(s) for Ligand-Target Complex>
2XMY

> <PubChem CID>
11339532

> <PubChem SID>
131342012

> <ChEBI ID of Ligand>


> <ChEMBL ID of Ligand>


> <DrugBank ID of Ligand>


> <IUPHAR_GRAC ID of Ligand>


> <KEGG ID of Ligand>


> <ZINC ID of Ligand>
ZINC58633057

> <Number of Protein Chains in Target (bigger than 1 implies a multichain complex)>
1

> <BindingDB Target Chain Sequence>
MENFQKVEKIGEGTYGVVYKARNKLTGEVVALKKIRLDTETEGVPSTAIREISLLKELNHPNIVKLLDVIHTENKLYLVFEFLHQDLKKFMDASALTGIPLPLIKSYLFQLLQGLAFCHSHRVLHRDLKPQNLLINTEGAIKLADFGLARAFGVPVRTYTHEVVTLWYRAPEILLGCKYYSTAVDIWSLGCIFAEMVTRRALFPGDSEIDQLFRIFRTLGTPDEVVWPGVTSMPDYKPSFPKWARQDFSKVVPPLDEDGRSLLSQMLHYDPNKRISAKAALAHPFFQDVTKPVPHLRL

> <PDB ID(s) of Target Chain>
1CKP,1DI8,1DM2,1E1V,1E1X,1E9H,1F5Q,1FIN,1FQ1,1FVT,1FVV,1G5S,1GIH,1GY3,1GZ8,1H00,1H01,1H07,1H08,1H0V,1H0W,1H1P,1H1Q,1H1R,1H1S,1H24,1H25,1H26,1H27,1H28,1HCK,1HCL,1JST,1JSU,1JSV,1JVP,1KE5,1KE6,1KE7,1KE8,1KE9,1OGU,1OI9,1OIQ,1OIR,1OIU,1OIY,1OKV,1OKW,1OL1,1OL2,1P2A,1P5E,1PF8,1PKD,1PW2,1PXI,1PXJ,1PXK,1PXL,1PXM,1PXN,1PXO,1PXP,1PYE,1QMZ,1R78,1URC,1URW,1V1K,1VYW,1VYZ,1W0X,1W8C,1W98,1WCC,1Y8Y,1Y91,1YKR,2A0C,2A4L,2B52,2B53,2B54,2B55,2BHE,2BHH,2BKZ,2BPM,2BTR,2BTS,2C4G,2C5N,2C5O,2C5V,2C5X,2C5Y,2C68,2C69,2C6I,2C6K,2C6L,2C6M,2C6O,2C6T,2CCH,2CCI,2CJM,2CLX,2DUV,2EXM,2FVD,2G9X,2I40,2J9M,2JGZ,2R3F,2R3G,2R3H,2R3I,2R3J,2R3K,2R3L,2R3M,2R3N,2R3O,2R3P,2R3Q,2R3R,2R64,2UUE,2UZB,2UZD,2UZE,2UZL,2UZN,2UZO,2V0D,2V22,2VTA,2VTH,2VTI,2VTJ,2VTL,2VTM,2VTN,2VTO,2VTP,2VTQ,2VTR,2VTS,2VTT,2VU3,2VV9,2W05,2W06,2W17,2W1H,2WEV,2WFY,2WHB,2WIH,2WIP,2WMA,2WMB,2WPA,2WXV,2X1N,2XMY,2XNB,3BHT,3BHU,3BHV,3DDP,3DDQ,3DOG,3EID,3EJ1,3EOC,3EZR,3EZV,3F5X,3FZ1,3IG7,3IGG,3LE6,3LFN,3LFQ,3LFS,3MY5,3NS9,3PJ8,3PXF,3PXQ,3PXR,3PXY,3PXZ,3PY0,3PY1,3QHR,3QHW,3QL8,3QQF,3QQG,3QQH,3QQJ,3QQK,3QQL,3QRT,3QRU,3QTQ,3QTR,3QTS,3QTU,3QTW,3QTX,3QTZ,3QU0,3QWJ,3QWK,3QX2,3QX4,3QXO,3QXP,3QZF,3QZG,3QZH,3QZI,3R1Q,3R1S,3R1Y,3R28,3R6X,3R71,3R73,3R7E,3R7I,3R7U,3R7V,3R7Y,3R83,3R8L,3R8M,3R8P,3R8U,3R8V,3R8Z,3R9D,3R9H,3R9N,3R9O,3RAH,3RAI,3RAK,3RAL,3RJC,3RK5,3RK7,3RK9,3RKB,3RM6,3RM7,3RMF,3RNI,3ROY,3RPO,3RPR,3RPV,3RPY,3RZB,3S00,3S0O,3S1H,3S2P,3SQQ,3SW4,3SW7,3TI1,3TIY,3TIZ,3TNW,3ULI,3UNJ,3UNK,3WBL,4ACM,4BCK,4BCM,4BCN,4BCO,4BCP,4BCQ,4BGH,4BZD,4CFM,4CFN,4CFU,4CFV,4CFW,4CFX,4D1X,4D1Z,4EK3,4EK4,4EK5,4EK6,4EK8,4EOQ,4EOR,4EOS,4ERW,4EZ3,4EZ7,4FKG,4FKI,4FKJ,4FKL,4FKO,4FKP,4FKQ,4FKR,4FKS,4FKT,4FKU,4FKV,4FKW,4FX3,4GCJ,4I3Z,4II5,4KD1,4LYN,4NJ3,4RJ3,5A14,5AND,5ANE,5ANG,5ANI,5ANJ,5ANK,5ANO,5CYI,5D1J,5FP5,5FP6,5IEV,5IEX,5IEY,5IF1,5JQ5,5JQ8,5K4J,5L2W,5LMK,5MHQ,5NEV,5OO0,5OSJ,5UQ1,5UQ2,5UQ3,6ATH,6GUB,6GUC,6GUE,6GUF,6GUH,6GUK,6GVA,6INL,6JGM,6OQI,6P3W,6Q3B,6Q3C,6Q3F,6Q48,6Q49,6Q4A,6Q4B,6Q4C,6Q4D,6Q4E,6Q4F,6Q4H,6Q4J,6Q4K,6RIJ,6SG4,7ACK,7B5L,7B5R,7B7S,7E34,7KJS,7M2F,7NVQ

> <UniProt (SwissProt) Recommended Name of Target Chain>
Cyclin-dependent kinase 2

> <UniProt (SwissProt) Entry Name of Target Chain>
CDK2_HUMAN

> <UniProt (SwissProt) Primary ID of Target Chain>
P24941

> <UniProt (SwissProt) Secondary ID(s) of Target Chain>
A8K7C6,O75100

> <UniProt (SwissProt) Alternative ID(s) of Target Chain>


> <UniProt (TrEMBL) Submitted Name of Target Chain>


> <UniProt (TrEMBL) Entry Name of Target Chain>


> <UniProt (TrEMBL) Primary ID of Target Chain>
A0A024RB77

> <UniProt (TrEMBL) Secondary ID(s) of Target Chain>


> <UniProt (TrEMBL) Alternative ID(s) of Target Chain>


$$$$
ttt_mol_1

Vconf v2.1
 36 38  0  0  0  0  0  0  0  0999 V2000
    1.4960    3.0440    0.9670 N   0  0  0  0  0  0  0  0  0  0  0
    1.2840    1.9370    0.2170 C   0  0  0  0  0  0  0  0  0  0  0
    1.9900    0.8250    0.6900 C   0  0  0  0  0  0  0  0  0  0  0
    2.9260    1.1910    2.1040 S   0  0  0  0  0  0  0  0  0  0  0
    2.3380    2.8110    1.9940 C   0  0  0  0  0  0  0  0  0  0  0
    0.3940    1.9190   -0.9570 C   0  0  0  0  0  0  0  0  0  0  0
    2.6830    3.6830    2.8220 O   0  0  0  0  0  0  0  0  0  0  0
    2.0040   -0.4770    0.1400 C   0  0  0  0  0  0  0  0  0  0  0
    2.7650   -1.4960    0.7430 C   0  0  0  0  0  0  0  0  0  0  0
    2.7570   -2.7680    0.1560 C   0  0  0  0  0  0  0  0  0  0  0
    2.0320   -2.9920   -0.9640 N   0  0  0  0  0  0  0  0  0  0  0
    1.2980   -2.0160   -1.5450 C   0  0  0  0  0  0  0  0  0  0  0
    1.3000   -0.7810   -0.9810 N   0  0  0  0  0  0  0  0  0  0  0
    0.6140   -2.3220   -2.6740 N   0  0  0  0  0  0  0  0  0  0  0
   -0.1550   -1.4650   -3.3900 C   0  0  0  0  0  0  0  0  0  0  0
   -0.7460   -0.5370   -5.5670 C   0  0  0  0  0  0  0  0  0  0  0
    0.0330   -1.4030   -4.7830 C   0  0  0  0  0  0  0  0  0  0  0
   -1.1580   -0.6720   -2.7920 C   0  0  0  0  0  0  0  0  0  0  0
   -1.9380    0.2050   -3.5730 C   0  0  0  0  0  0  0  0  0  0  0
   -1.7270    0.2700   -4.9650 C   0  0  0  0  0  0  0  0  0  0  0
    0.8990    4.3150    0.7120 C   0  0  0  0  0  0  0  0  0  0  0
   -2.8440    0.9500   -3.0110 C   0  0  0  0  0  0  0  0  0  0  0
   -3.6410    1.6090   -2.5140 N   0  0  0  0  0  0  0  0  0  0  0
   -0.4200    1.2170   -0.7790 H   0  0  0  0  0  0  0  0  0  0  0
   -0.0370    2.9010   -1.1460 H   0  0  0  0  0  0  0  0  0  0  0
    0.9530    1.6130   -1.8420 H   0  0  0  0  0  0  0  0  0  0  0
    3.3160   -1.3300    1.5870 H   0  0  0  0  0  0  0  0  0  0  0
    3.2990   -3.5260    0.5710 H   0  0  0  0  0  0  0  0  0  0  0
    0.7280   -3.2180   -3.0260 H   0  0  0  0  0  0  0  0  0  0  0
   -0.5990   -0.4910   -6.5760 H   0  0  0  0  0  0  0  0  0  0  0
    0.7450   -1.9830   -5.2300 H   0  0  0  0  0  0  0  0  0  0  0
   -1.3100   -0.7380   -1.7830 H   0  0  0  0  0  0  0  0  0  0  0
   -2.2820    0.8980   -5.5500 H   0  0  0  0  0  0  0  0  0  0  0
    1.2070    5.0610    1.4470 H   0  0  0  0  0  0  0  0  0  0  0
    1.1940    4.6670   -0.2780 H   0  0  0  0  0  0  0  0  0  0  0
   -0.1880    4.2250    0.7500 H   0  0  0  0  0  0  0  0  0  0  0
  1  2  1  0  0  0  0
  1  5  1  0  0  0  0
  1 21  1  0  0  0  0
  2  3  2  0  0  0  0
  2  6  1  0  0  0  0
  3  4  1  0  0  0  0
  3  8  1  0  0  0  0
  4  5  1  0  0  0  0
  5  7  2  0  0  0  0
  6 24  1  0  0  0  0
  6 25  1  0  0  0  0
  6 26  1  0  0  0  0
  8  9  2  0  0  0  0
  8 13  1  0  0  0  0
  9 10  1  0  0  0  0
  9 27  1  0  0  0  0
 10 11  2  0  0  0  0
 10 28  1  0  0  0  0
 11 12  1  0  0  0  0
 12 13  2  0  0  0  0
 12 14  1  0  0  0  0
 14 15  1  0  0  0  0
 14 29  1  0  0  0  0
 15 17  2  0  0  0  0
 15 18  1  0  0  0  0
 16 17  1  0  0  0  0
 16 20  2  0  0  0  0
 16 30  1  0  0  0  0
 17 31  1  0  0  0  0
 18 19  2  0  0  0  0
 18 32  1  0  0  0  0
 19 20  1  0  0  0  0
 19 22  1  0  0  0  0
 20 33  1  0  0  0  0
 21 34  1  0  0  0  0
 21 35  1  0  0  0  0
 21 36  1  0  0  0  0
 22 23  3  0  0  0  0
M  END
> <From>
www.bindingDB.org

> <BindingDB Reactant_set_id>
153789

> <Ligand InChI>
InChI=1S/C16H13N5OS/c1-10-14(23-16(22)21(10)2)13-6-7-18-15(20-13)19-12-5-3-4-11(8-12)9-17/h3-8H,1-2H3,(H,18,19,20)

> <Ligand InChI Key>
ITSPBRBMIPVDCF-UHFFFAOYSA-N

> <BindingDB MonomerID>
81439

> <BindingDB Ligand Name>
CDK Inhibitor, 12

> <Target Name Assigned by Curator or DataSource>
Cyclin-dependent kinase 2

> <Target Source Organism According to Curator or DataSource>
Homo sapiens

> <Ki (nM)>
 0.52

> <IC50 (nM)>


> <Kd (nM)>


> <EC50 (nM)>


> <kon (M-1-s-1)>


> <koff (s-1)>


> <pH>


> <Temp C>


> <Curation/DataSource>
Curated from the literature by BindingDB

> <Article DOI>
10.1016/j.chembiol.2010.07.016

> <PMID>
21035734

> <PubChem AID>


> <Patent Number>


> <Authors>
Wang, S; Griffiths, G; Midgley, CA; Barnett, AL; Cooper, M; Grabarek, J; Ingram, L; Jackson, W; Kontopidis, G; McClue, SJ; McInnes, C; McLachlan, J; Meades, C; Mezna, M; Stuart, I; Thomas, MP; Zheleva, DI; Lane, DP; Jackson, RC; Glover, DM; Blake, DG; Fischer, PM

> <Institution>
Cyclacel Limited

> <Link to Ligand in BindingDB>
http://www.bindingdb.org/bind/chemsearch/marvin/MolStructure.jsp?monomerid=81439

> <Link to Ligand-Target Pair in BindingDB>
http://www.bindingdb.org/jsp/dbsearch/PrimarySearch_ki.jsp?energyterm=kJ/mole&tag=pol&polymerid=796&target=Cyclin-dependent+kinase+2&column=ki&startPg=0&Increment=50&submit=Search

> <Link to Ligand-Target Pair in BindingDB>
http://www.bindingdb.org/jsp/dbsearch/PrimarySearch_ki.jsp?energyterm=kJ/mole&tag=r21&monomerid=81439&enzyme=Cyclin-dependent+kinase+2&column=ki&startPg=0&Increment=50&submit=Search

> <Ligand HET ID in PDB>


> <PDB ID(s) for Ligand-Target Complex>


> <PubChem CID>
11244207

> <PubChem SID>
131342013

> <ChEBI ID of Ligand>


> <ChEMBL ID of Ligand>


> <DrugBank ID of Ligand>


> <IUPHAR_GRAC ID of Ligand>


> <KEGG ID of Ligand>


> <ZINC ID of Ligand>
ZINC70463262

> <Number of Protein Chains in Target (bigger than 1 implies a multichain complex)>
1

> <BindingDB Target Chain Sequence>
MENFQKVEKIGEGTYGVVYKARNKLTGEVVALKKIRLDTETEGVPSTAIREISLLKELNHPNIVKLLDVIHTENKLYLVFEFLHQDLKKFMDASALTGIPLPLIKSYLFQLLQGLAFCHSHRVLHRDLKPQNLLINTEGAIKLADFGLARAFGVPVRTYTHEVVTLWYRAPEILLGCKYYSTAVDIWSLGCIFAEMVTRRALFPGDSEIDQLFRIFRTLGTPDEVVWPGVTSMPDYKPSFPKWARQDFSKVVPPLDEDGRSLLSQMLHYDPNKRISAKAALAHPFFQDVTKPVPHLRL

> <PDB ID(s) of Target Chain>
1CKP,1DI8,1DM2,1E1V,1E1X,1E9H,1F5Q,1FIN,1FQ1,1FVT,1FVV,1G5S,1GIH,1GY3,1GZ8,1H00,1H01,1H07,1H08,1H0V,1H0W,1H1P,1H1Q,1H1R,1H1S,1H24,1H25,1H26,1H27,1H28,1HCK,1HCL,1JST,1JSU,1JSV,1JVP,1KE5,1KE6,1KE7,1KE8,1KE9,1OGU,1OI9,1OIQ,1OIR,1OIU,1OIY,1OKV,1OKW,1OL1,1OL2,1P2A,1P5E,1PF8,1PKD,1PW2,1PXI,1PXJ,1PXK,1PXL,1PXM,1PXN,1PXO,1PXP,1PYE,1QMZ,1R78,1URC,1URW,1V1K,1VYW,1VYZ,1W0X,1W8C,1W98,1WCC,1Y8Y,1Y91,1YKR,2A0C,2A4L,2B52,2B53,2B54,2B55,2BHE,2BHH,2BKZ,2BPM,2BTR,2BTS,2C4G,2C5N,2C5O,2C5V,2C5X,2C5Y,2C68,2C69,2C6I,2C6K,2C6L,2C6M,2C6O,2C6T,2CCH,2CCI,2CJM,2CLX,2DUV,2EXM,2FVD,2G9X,2I40,2J9M,2JGZ,2R3F,2R3G,2R3H,2R3I,2R3J,2R3K,2R3L,2R3M,2R3N,2R3O,2R3P,2R3Q,2R3R,2R64,2UUE,2UZB,2UZD,2UZE,2UZL,2UZN,2UZO,2V0D,2V22,2VTA,2VTH,2VTI,2VTJ,2VTL,2VTM,2VTN,2VTO,2VTP,2VTQ,2VTR,2VTS,2VTT,2VU3,2VV9,2W05,2W06,2W17,2W1H,2WEV,2WFY,2WHB,2WIH,2WIP,2WMA,2WMB,2WPA,2WXV,2X1N,2XMY,2XNB,3BHT,3BHU,3BHV,3DDP,3DDQ,3DOG,3EID,3EJ1,3EOC,3EZR,3EZV,3F5X,3FZ1,3IG7,3IGG,3LE6,3LFN,3LFQ,3LFS,3MY5,3NS9,3PJ8,3PXF,3PXQ,3PXR,3PXY,3PXZ,3PY0,3PY1,3QHR,3QHW,3QL8,3QQF,3QQG,3QQH,3QQJ,3QQK,3QQL,3QRT,3QRU,3QTQ,3QTR,3QTS,3QTU,3QTW,3QTX,3QTZ,3QU0,3QWJ,3QWK,3QX2,3QX4,3QXO,3QXP,3QZF,3QZG,3QZH,3QZI,3R1Q,3R1S,3R1Y,3R28,3R6X,3R71,3R73,3R7E,3R7I,3R7U,3R7V,3R7Y,3R83,3R8L,3R8M,3R8P,3R8U,3R8V,3R8Z,3R9D,3R9H,3R9N,3R9O,3RAH,3RAI,3RAK,3RAL,3RJC,3RK5,3RK7,3RK9,3RKB,3RM6,3RM7,3RMF,3RNI,3ROY,3RPO,3RPR,3RPV,3RPY,3RZB,3S00,3S0O,3S1H,3S2P,3SQQ,3SW4,3SW7,3TI1,3TIY,3TIZ,3TNW,3ULI,3UNJ,3UNK,3WBL,4ACM,4BCK,4BCM,4BCN,4BCO,4BCP,4BCQ,4BGH,4BZD,4CFM,4CFN,4CFU,4CFV,4CFW,4CFX,4D1X,4D1Z,4EK3,4EK4,4EK5,4EK6,4EK8,4EOQ,4EOR,4EOS,4ERW,4EZ3,4EZ7,4FKG,4FKI,4FKJ,4FKL,4FKO,4FKP,4FKQ,4FKR,4FKS,4FKT,4FKU,4FKV,4FKW,4FX3,4GCJ,4I3Z,4II5,4KD1,4LYN,4NJ3,4RJ3,5A14,5AND,5ANE,5ANG,5ANI,5ANJ,5ANK,5ANO,5CYI,5D1J,5FP5,5FP6,5IEV,5IEX,5IEY,5IF1,5JQ5,5JQ8,5K4J,5L2W,5LMK,5MHQ,5NEV,5OO0,5OSJ,5UQ1,5UQ2,5UQ3,6ATH,6GUB,6GUC,6GUE,6GUF,6GUH,6GUK,6GVA,6INL,6JGM,6OQI,6P3W,6Q3B,6Q3C,6Q3F,6Q48,6Q49,6Q4A,6Q4B,6Q4C,6Q4D,6Q4E,6Q4F,6Q4H,6Q4J,6Q4K,6RIJ,6SG4,7ACK,7B5L,7B5R,7B7S,7E34,7KJS,7M2F,7NVQ

> <UniProt (SwissProt) Recommended Name of Target Chain>
Cyclin-dependent kinase 2

> <UniProt (SwissProt) Entry Name of Target Chain>
CDK2_HUMAN

> <UniProt (SwissProt) Primary ID of Target Chain>
P24941

> <UniProt (SwissProt) Secondary ID(s) of Target Chain>
A8K7C6,O75100

> <UniProt (SwissProt) Alternative ID(s) of Target Chain>


> <UniProt (TrEMBL) Submitted Name of Target Chain>


> <UniProt (TrEMBL) Entry Name of Target Chain>


> <UniProt (TrEMBL) Primary ID of Target Chain>
A0A024RB77

> <UniProt (TrEMBL) Secondary ID(s) of Target Chain>


> <UniProt (TrEMBL) Alternative ID(s) of Target Chain>


$$$$
2-Anilino-4-_thiazol-5-yl_pyrimidine

Vconf v2.0 Academic SN VC001-00000579
 35 37  0  0  0  0  0  0  0  0999 V2000
   -0.3460    4.8090    0.9020 C   0  0  0  0  0  0  0  0  0  0  0
   -2.5630    4.7900    0.7400 C   0  0  0  0  0  0  0  0  0  0  0
   -2.2780    3.4260    0.5940 C   0  0  0  0  0  0  0  0  0  0  0
   -1.4660    5.5400    0.9080 N   0  0  0  0  0  0  0  0  0  0  0
   -3.8940    5.4060    0.7320 C   0  0  0  0  0  0  0  0  0  0  0
   -0.5770    3.1080    0.6880 S   0  0  0  0  0  0  0  0  0  0  0
   -3.2060    2.3830    0.3830 C   0  0  0  0  0  0  0  0  0  0  0
   -2.7660    1.0520    0.2620 C   0  0  0  0  0  0  0  0  0  0  0
   -3.7250    0.0560    0.0390 C   0  0  0  0  0  0  0  0  0  0  0
   -5.4590    1.6620    0.0610 C   0  0  0  0  0  0  0  0  0  0  0
   -4.5370    2.6350    0.2780 N   0  0  0  0  0  0  0  0  0  0  0
   -5.0340    0.3840   -0.0570 N   0  0  0  0  0  0  0  0  0  0  0
   -6.7860    1.9030   -0.0660 N   0  0  0  0  0  0  0  0  0  0  0
   -7.3830    3.1180    0.0050 C   0  0  0  0  0  0  0  0  0  0  0
   -8.9780    4.6980   -0.9420 C   0  0  0  0  0  0  0  0  0  0  0
   -8.3260    3.4560   -0.9820 C   0  0  0  0  0  0  0  0  0  0  0
   -7.1290    4.0270    1.0520 C   0  0  0  0  0  0  0  0  0  0  0
   -7.7690    5.2860    1.1080 C   0  0  0  0  0  0  0  0  0  0  0
   -8.6980    5.6060    0.0920 C   0  0  0  0  0  0  0  0  0  0  0
   -7.4960    6.1690    2.1160 N   0  3  0  0  0  0  0  0  0  0  0
   -8.1010    7.2050    2.2350 O   0  5  0  0  0  0  0  0  0  0  0
   -6.6340    5.9600    2.9280 O   0  0  0  0  0  0  0  0  0  0  0
    0.8630    5.3590    1.0550 N   0  0  0  0  0  0  0  0  0  0  0
   -3.8050    6.4860    0.8500 H   0  0  0  0  0  0  0  0  0  0  0
   -4.4000    5.1940   -0.2100 H   0  0  0  0  0  0  0  0  0  0  0
   -4.4800    5.0100    1.5610 H   0  0  0  0  0  0  0  0  0  0  0
   -1.7790    0.8030    0.3310 H   0  0  0  0  0  0  0  0  0  0  0
   -3.4360   -0.9190   -0.0540 H   0  0  0  0  0  0  0  0  0  0  0
   -7.3480    1.1430   -0.2790 H   0  0  0  0  0  0  0  0  0  0  0
   -9.6560    4.9420   -1.6660 H   0  0  0  0  0  0  0  0  0  0  0
   -8.5350    2.8010   -1.7370 H   0  0  0  0  0  0  0  0  0  0  0
   -6.4650    3.7710    1.7840 H   0  0  0  0  0  0  0  0  0  0  0
   -9.1770    6.5070    0.1050 H   0  0  0  0  0  0  0  0  0  0  0
    1.6560    4.8010    1.0480 H   0  0  0  0  0  0  0  0  0  0  0
    0.9440    6.3180    1.1740 H   0  0  0  0  0  0  0  0  0  0  0
  1  4  2  0  0  0  0
  1  6  1  0  0  0  0
  1 23  1  0  0  0  0
  2  3  2  0  0  0  0
  2  4  1  0  0  0  0
  2  5  1  0  0  0  0
  3  6  1  0  0  0  0
  3  7  1  0  0  0  0
  5 24  1  0  0  0  0
  5 25  1  0  0  0  0
  5 26  1  0  0  0  0
  7  8  2  0  0  0  0
  7 11  1  0  0  0  0
  8  9  1  0  0  0  0
  8 27  1  0  0  0  0
  9 12  2  0  0  0  0
  9 28  1  0  0  0  0
 10 11  2  0  0  0  0
 10 12  1  0  0  0  0
 10 13  1  0  0  0  0
 13 14  1  0  0  0  0
 13 29  1  0  0  0  0
 14 16  2  0  0  0  0
 14 17  1  0  0  0  0
 15 16  1  0  0  0  0
 15 19  2  0  0  0  0
 15 30  1  0  0  0  0
 16 31  1  0  0  0  0
 17 18  2  0  0  0  0
 17 32  1  0  0  0  0
 18 19  1  0  0  0  0
 18 20  1  0  0  0  0
 19 33  1  0  0  0  0
 20 21  1  0  0  0  0
 20 22  2  0  0  0  0
 23 34  1  0  0  0  0
 23 35  1  0  0  0  0
M  END
> <From>
www.bindingDB.org

> <BindingDB Reactant_set_id>
153778

> <Ligand InChI>
InChI=1S/C14H12N6O2S/c1-8-12(23-13(15)17-8)11-5-6-16-14(19-11)18-9-3-2-4-10(7-9)20(21)22/h2-7H,1H3,(H2,15,17)(H,16,18,19)

> <Ligand InChI Key>
DYTKVFHLKPDNRW-UHFFFAOYSA-N

> <BindingDB MonomerID>
8061

> <BindingDB Ligand Name>
2-Anilino-4-(thiazol-5-yl)pyrimidine deriv. 32::4-(2-amino-4-methyl-1,3-thiazol-5-yl)-N-(3-nitrophenyl)pyrimidin-2-amine, 4::4-methyl-5-{2-[(3-nitrophenyl)amino]pyrimidin-4-yl}-1,3-thiazol-2-amine::CDK Inhibitor, 1::[4-(2-Amino-4-methylthiazol-5-yl)pyrimidin-2-yl](3-nitrophenyl)amine

> <Target Name Assigned by Curator or DataSource>
Cyclin-dependent kinase 2

> <Target Source Organism According to Curator or DataSource>
Homo sapiens

> <Ki (nM)>
<1

> <IC50 (nM)>


> <Kd (nM)>


> <EC50 (nM)>


> <kon (M-1-s-1)>


> <koff (s-1)>


> <pH>


> <Temp C>


> <Curation/DataSource>
Curated from the literature by BindingDB

> <Article DOI>
10.1016/j.chembiol.2010.07.016

> <PMID>
21035734

> <PubChem AID>


> <Patent Number>


> <Authors>
Wang, S; Griffiths, G; Midgley, CA; Barnett, AL; Cooper, M; Grabarek, J; Ingram, L; Jackson, W; Kontopidis, G; McClue, SJ; McInnes, C; McLachlan, J; Meades, C; Mezna, M; Stuart, I; Thomas, MP; Zheleva, DI; Lane, DP; Jackson, RC; Glover, DM; Blake, DG; Fischer, PM

> <Institution>
Cyclacel Limited

> <Link to Ligand in BindingDB>
http://www.bindingdb.org/bind/chemsearch/marvin/MolStructure.jsp?monomerid=8061

> <Link to Ligand-Target Pair in BindingDB>
http://www.bindingdb.org/jsp/dbsearch/PrimarySearch_ki.jsp?energyterm=kJ/mole&tag=pol&polymerid=796&target=Cyclin-dependent+kinase+2&column=ki&startPg=0&Increment=50&submit=Search

> <Link to Ligand-Target Pair in BindingDB>
http://www.bindingdb.org/jsp/dbsearch/PrimarySearch_ki.jsp?energyterm=kJ/mole&tag=r21&monomerid=8061&enzyme=Cyclin-dependent+kinase+2&column=ki&startPg=0&Increment=50&submit=Search

> <Ligand HET ID in PDB>


> <PDB ID(s) for Ligand-Target Complex>
1PXO,2WEV

> <PubChem CID>
447961

> <PubChem SID>
11108815

> <ChEBI ID of Ligand>


> <ChEMBL ID of Ligand>


> <DrugBank ID of Ligand>


> <IUPHAR_GRAC ID of Ligand>


> <KEGG ID of Ligand>
C06058

> <ZINC ID of Ligand>
ZINC02047389

> <Number of Protein Chains in Target (bigger than 1 implies a multichain complex)>
1

> <BindingDB Target Chain Sequence>
MENFQKVEKIGEGTYGVVYKARNKLTGEVVALKKIRLDTETEGVPSTAIREISLLKELNHPNIVKLLDVIHTENKLYLVFEFLHQDLKKFMDASALTGIPLPLIKSYLFQLLQGLAFCHSHRVLHRDLKPQNLLINTEGAIKLADFGLARAFGVPVRTYTHEVVTLWYRAPEILLGCKYYSTAVDIWSLGCIFAEMVTRRALFPGDSEIDQLFRIFRTLGTPDEVVWPGVTSMPDYKPSFPKWARQDFSKVVPPLDEDGRSLLSQMLHYDPNKRISAKAALAHPFFQDVTKPVPHLRL

> <PDB ID(s) of Target Chain>
1CKP,1DI8,1DM2,1E1V,1E1X,1E9H,1F5Q,1FIN,1FQ1,1FVT,1FVV,1G5S,1GIH,1GY3,1GZ8,1H00,1H01,1H07,1H08,1H0V,1H0W,1H1P,1H1Q,1H1R,1H1S,1H24,1H25,1H26,1H27,1H28,1HCK,1HCL,1JST,1JSU,1JSV,1JVP,1KE5,1KE6,1KE7,1KE8,1KE9,1OGU,1OI9,1OIQ,1OIR,1OIU,1OIY,1OKV,1OKW,1OL1,1OL2,1P2A,1P5E,1PF8,1PKD,1PW2,1PXI,1PXJ,1PXK,1PXL,1PXM,1PXN,1PXO,1PXP,1PYE,1QMZ,1R78,1URC,1URW,1V1K,1VYW,1VYZ,1W0X,1W8C,1W98,1WCC,1Y8Y,1Y91,1YKR,2A0C,2A4L,2B52,2B53,2B54,2B55,2BHE,2BHH,2BKZ,2BPM,2BTR,2BTS,2C4G,2C5N,2C5O,2C5V,2C5X,2C5Y,2C68,2C69,2C6I,2C6K,2C6L,2C6M,2C6O,2C6T,2CCH,2CCI,2CJM,2CLX,2DUV,2EXM,2FVD,2G9X,2I40,2J9M,2JGZ,2R3F,2R3G,2R3H,2R3I,2R3J,2R3K,2R3L,2R3M,2R3N,2R3O,2R3P,2R3Q,2R3R,2R64,2UUE,2UZB,2UZD,2UZE,2UZL,2UZN,2UZO,2V0D,2V22,2VTA,2VTH,2VTI,2VTJ,2VTL,2VTM,2VTN,2VTO,2VTP,2VTQ,2VTR,2VTS,2VTT,2VU3,2VV9,2W05,2W06,2W17,2W1H,2WEV,2WFY,2WHB,2WIH,2WIP,2WMA,2WMB,2WPA,2WXV,2X1N,2XMY,2XNB,3BHT,3BHU,3BHV,3DDP,3DDQ,3DOG,3EID,3EJ1,3EOC,3EZR,3EZV,3F5X,3FZ1,3IG7,3IGG,3LE6,3LFN,3LFQ,3LFS,3MY5,3NS9,3PJ8,3PXF,3PXQ,3PXR,3PXY,3PXZ,3PY0,3PY1,3QHR,3QHW,3QL8,3QQF,3QQG,3QQH,3QQJ,3QQK,3QQL,3QRT,3QRU,3QTQ,3QTR,3QTS,3QTU,3QTW,3QTX,3QTZ,3QU0,3QWJ,3QWK,3QX2,3QX4,3QXO,3QXP,3QZF,3QZG,3QZH,3QZI,3R1Q,3R1S,3R1Y,3R28,3R6X,3R71,3R73,3R7E,3R7I,3R7U,3R7V,3R7Y,3R83,3R8L,3R8M,3R8P,3R8U,3R8V,3R8Z,3R9D,3R9H,3R9N,3R9O,3RAH,3RAI,3RAK,3RAL,3RJC,3RK5,3RK7,3RK9,3RKB,3RM6,3RM7,3RMF,3RNI,3ROY,3RPO,3RPR,3RPV,3RPY,3RZB,3S00,3S0O,3S1H,3S2P,3SQQ,3SW4,3SW7,3TI1,3TIY,3TIZ,3TNW,3ULI,3UNJ,3UNK,3WBL,4ACM,4BCK,4BCM,4BCN,4BCO,4BCP,4BCQ,4BGH,4BZD,4CFM,4CFN,4CFU,4CFV,4CFW,4CFX,4D1X,4D1Z,4EK3,4EK4,4EK5,4EK6,4EK8,4EOQ,4EOR,4EOS,4ERW,4EZ3,4EZ7,4FKG,4FKI,4FKJ,4FKL,4FKO,4FKP,4FKQ,4FKR,4FKS,4FKT,4FKU,4FKV,4FKW,4FX3,4GCJ,4I3Z,4II5,4KD1,4LYN,4NJ3,4RJ3,5A14,5AND,5ANE,5ANG,5ANI,5ANJ,5ANK,5ANO,5CYI,5D1J,5FP5,5FP6,5IEV,5IEX,5IEY,5IF1,5JQ5,5JQ8,5K4J,5L2W,5LMK,5MHQ,5NEV,5OO0,5OSJ,5UQ1,5UQ2,5UQ3,6ATH,6GUB,6GUC,6GUE,6GUF,6GUH,6GUK,6GVA,6INL,6JGM,6OQI,6P3W,6Q3B,6Q3C,6Q3F,6Q48,6Q49,6Q4A,6Q4B,6Q4C,6Q4D,6Q4E,6Q4F,6Q4H,6Q4J,6Q4K,6RIJ,6SG4,7ACK,7B5L,7B5R,7B7S,7E34,7KJS,7M2F,7NVQ

> <UniProt (SwissProt) Recommended Name of Target Chain>
Cyclin-dependent kinase 2

> <UniProt (SwissProt) Entry Name of Target Chain>
CDK2_HUMAN

> <UniProt (SwissProt) Primary ID of Target Chain>
P24941

> <UniProt (SwissProt) Secondary ID(s) of Target Chain>
A8K7C6,O75100

> <UniProt (SwissProt) Alternative ID(s) of Target Chain>


> <UniProt (TrEMBL) Submitted Name of Target Chain>


> <UniProt (TrEMBL) Entry Name of Target Chain>


> <UniProt (TrEMBL) Primary ID of Target Chain>
A0A024RB77

> <UniProt (TrEMBL) Secondary ID(s) of Target Chain>


> <UniProt (TrEMBL) Alternative ID(s) of Target Chain>


$$$$
ttt_mol_1

Vconf v2.1
 42 44  0  0  0  0  0  0  0  0999 V2000
    1.9840    4.2270    0.0360 N   0  0  0  0  0  0  0  0  0  0  0
    1.7500    2.9250   -0.1730 C   0  0  0  0  0  0  0  0  0  0  0
    2.8650    2.1200    0.0900 C   0  0  0  0  0  0  0  0  0  0  0
    4.2310    3.0560    0.6040 S   0  0  0  0  0  0  0  0  0  0  0
    3.2360    4.4630    0.4420 C   0  0  0  0  0  0  0  0  0  0  0
    0.4320    2.4700   -0.6310 C   0  0  0  0  0  0  0  0  0  0  0
    3.6670    5.7100    0.6990 N   0  0  0  0  0  0  0  0  0  0  0
    2.9340    0.7140   -0.0050 C   0  0  0  0  0  0  0  0  0  0  0
    4.1070    0.0250    0.3540 C   0  0  0  0  0  0  0  0  0  0  0
    4.1060   -1.3730    0.2670 C   0  0  0  0  0  0  0  0  0  0  0
    3.0000   -2.0260   -0.1600 N   0  0  0  0  0  0  0  0  0  0  0
    1.8760   -1.3640   -0.5170 C   0  0  0  0  0  0  0  0  0  0  0
    1.8660   -0.0090   -0.4290 N   0  0  0  0  0  0  0  0  0  0  0
    0.8140   -2.0890   -0.9340 N   0  0  0  0  0  0  0  0  0  0  0
   -0.3630   -1.5800   -1.3700 C   0  0  0  0  0  0  0  0  0  0  0
   -2.8010   -1.6000   -1.2760 C   0  0  0  0  0  0  0  0  0  0  0
   -1.5600   -2.0800   -0.8240 C   0  0  0  0  0  0  0  0  0  0  0
   -0.4230   -0.6060   -2.3900 C   0  0  0  0  0  0  0  0  0  0  0
   -1.6640   -0.1240   -2.8480 C   0  0  0  0  0  0  0  0  0  0  0
   -2.8520   -0.6260   -2.2870 C   0  0  0  0  0  0  0  0  0  0  0
   -1.7380    1.0750   -4.1020 S   0  0  0  0  0  0  0  0  0  0  0
   -0.2730    1.4840   -4.5670 O   0  0  0  0  0  0  0  0  0  0  0
   -2.8990    0.6510   -5.1020 O   0  0  0  0  0  0  0  0  0  0  0
   -2.3850    2.5600   -3.3170 C   0  0  0  0  0  0  0  0  0  0  0
    4.9910    5.9780    1.1220 C   0  0  0  0  0  0  0  0  0  0  0
    0.0210    1.7450    0.0730 H   0  0  0  0  0  0  0  0  0  0  0
   -0.2500    3.3180   -0.6980 H   0  0  0  0  0  0  0  0  0  0  0
    0.5250    2.0120   -1.6160 H   0  0  0  0  0  0  0  0  0  0  0
    3.0480    6.4490    0.5850 H   0  0  0  0  0  0  0  0  0  0  0
    4.9410    0.5150    0.6810 H   0  0  0  0  0  0  0  0  0  0  0
    4.9390   -1.9020    0.5260 H   0  0  0  0  0  0  0  0  0  0  0
    0.8960   -3.0540   -0.8910 H   0  0  0  0  0  0  0  0  0  0  0
   -3.6660   -1.9620   -0.8730 H   0  0  0  0  0  0  0  0  0  0  0
   -1.5300   -2.7930   -0.0940 H   0  0  0  0  0  0  0  0  0  0  0
    0.4390   -0.2490   -2.8050 H   0  0  0  0  0  0  0  0  0  0  0
   -3.7540   -0.2840   -2.6200 H   0  0  0  0  0  0  0  0  0  0  0
   -2.5020    3.3390   -4.0690 H   0  0  0  0  0  0  0  0  0  0  0
   -3.3540    2.3460   -2.8640 H   0  0  0  0  0  0  0  0  0  0  0
   -1.6900    2.8990   -2.5510 H   0  0  0  0  0  0  0  0  0  0  0
    5.1030    7.0510    1.2780 H   0  0  0  0  0  0  0  0  0  0  0
    5.2010    5.4600    2.0590 H   0  0  0  0  0  0  0  0  0  0  0
    5.7000    5.6540    0.3580 H   0  0  0  0  0  0  0  0  0  0  0
  1  2  1  0  0  0  0
  1  5  2  0  0  0  0
  2  3  2  0  0  0  0
  2  6  1  0  0  0  0
  3  4  1  0  0  0  0
  3  8  1  0  0  0  0
  4  5  1  0  0  0  0
  5  7  1  0  0  0  0
  6 26  1  0  0  0  0
  6 27  1  0  0  0  0
  6 28  1  0  0  0  0
  7 25  1  0  0  0  0
  7 29  1  0  0  0  0
  8  9  2  0  0  0  0
  8 13  1  0  0  0  0
  9 10  1  0  0  0  0
  9 30  1  0  0  0  0
 10 11  2  0  0  0  0
 10 31  1  0  0  0  0
 11 12  1  0  0  0  0
 12 13  2  0  0  0  0
 12 14  1  0  0  0  0
 14 15  1  0  0  0  0
 14 32  1  0  0  0  0
 15 17  2  0  0  0  0
 15 18  1  0  0  0  0
 16 17  1  0  0  0  0
 16 20  2  0  0  0  0
 16 33  1  0  0  0  0
 17 34  1  0  0  0  0
 18 19  2  0  0  0  0
 18 35  1  0  0  0  0
 19 20  1  0  0  0  0
 19 21  1  0  0  0  0
 20 36  1  0  0  0  0
 21 22  2  0  0  0  0
 21 23  2  0  0  0  0
 21 24  1  0  0  0  0
 24 37  1  0  0  0  0
 24 38  1  0  0  0  0
 24 39  1  0  0  0  0
 25 40  1  0  0  0  0
 25 41  1  0  0  0  0
 25 42  1  0  0  0  0
M  END
> <From>
www.bindingDB.org

> <BindingDB Reactant_set_id>
153783

> <Ligand InChI>
InChI=1S/C16H17N5O2S2/c1-10-14(24-16(17-2)19-10)13-7-8-18-15(21-13)20-11-5-4-6-12(9-11)25(3,22)23/h4-9H,1-3H3,(H,17,19)(H,18,20,21)

> <Ligand InChI Key>
BFQBIVCJNIEQPK-UHFFFAOYSA-N

> <BindingDB MonomerID>
81433

> <BindingDB Ligand Name>
CDK Inhibitor, 6

> <Target Name Assigned by Curator or DataSource>
Cyclin-dependent kinase 2

> <Target Source Organism According to Curator or DataSource>
Homo sapiens

> <Ki (nM)>
 1.6

> <IC50 (nM)>


> <Kd (nM)>


> <EC50 (nM)>


> <kon (M-1-s-1)>


> <koff (s-1)>


> <pH>


> <Temp C>


> <Curation/DataSource>
Curated from the literature by BindingDB

> <Article DOI>
10.1016/j.chembiol.2010.07.016

> <PMID>
21035734

> <PubChem AID>


> <Patent Number>


> <Authors>
Wang, S; Griffiths, G; Midgley, CA; Barnett, AL; Cooper, M; Grabarek, J; Ingram, L; Jackson, W; Kontopidis, G; McClue, SJ; McInnes, C; McLachlan, J; Meades, C; Mezna, M; Stuart, I; Thomas, MP; Zheleva, DI; Lane, DP; Jackson, RC; Glover, DM; Blake, DG; Fischer, PM

> <Institution>
Cyclacel Limited

> <Link to Ligand in BindingDB>
http://www.bindingdb.org/bind/chemsearch/marvin/MolStructure.jsp?monomerid=81433

> <Link to Ligand-Target Pair in BindingDB>
http://www.bindingdb.org/jsp/dbsearch/PrimarySearch_ki.jsp?energyterm=kJ/mole&tag=pol&polymerid=796&target=Cyclin-dependent+kinase+2&column=ki&startPg=0&Increment=50&submit=Search

> <Link to Ligand-Target Pair in BindingDB>
http://www.bindingdb.org/jsp/dbsearch/PrimarySearch_ki.jsp?energyterm=kJ/mole&tag=r21&monomerid=81433&enzyme=Cyclin-dependent+kinase+2&column=ki&startPg=0&Increment=50&submit=Search

> <Ligand HET ID in PDB>


> <PDB ID(s) for Ligand-Target Complex>


> <PubChem CID>
11595939

> <PubChem SID>
131342007

> <ChEBI ID of Ligand>


> <ChEMBL ID of Ligand>


> <DrugBank ID of Ligand>


> <IUPHAR_GRAC ID of Ligand>


> <KEGG ID of Ligand>


> <ZINC ID of Ligand>
ZINC35900679

> <Number of Protein Chains in Target (bigger than 1 implies a multichain complex)>
1

> <BindingDB Target Chain Sequence>
MENFQKVEKIGEGTYGVVYKARNKLTGEVVALKKIRLDTETEGVPSTAIREISLLKELNHPNIVKLLDVIHTENKLYLVFEFLHQDLKKFMDASALTGIPLPLIKSYLFQLLQGLAFCHSHRVLHRDLKPQNLLINTEGAIKLADFGLARAFGVPVRTYTHEVVTLWYRAPEILLGCKYYSTAVDIWSLGCIFAEMVTRRALFPGDSEIDQLFRIFRTLGTPDEVVWPGVTSMPDYKPSFPKWARQDFSKVVPPLDEDGRSLLSQMLHYDPNKRISAKAALAHPFFQDVTKPVPHLRL

> <PDB ID(s) of Target Chain>
1CKP,1DI8,1DM2,1E1V,1E1X,1E9H,1F5Q,1FIN,1FQ1,1FVT,1FVV,1G5S,1GIH,1GY3,1GZ8,1H00,1H01,1H07,1H08,1H0V,1H0W,1H1P,1H1Q,1H1R,1H1S,1H24,1H25,1H26,1H27,1H28,1HCK,1HCL,1JST,1JSU,1JSV,1JVP,1KE5,1KE6,1KE7,1KE8,1KE9,1OGU,1OI9,1OIQ,1OIR,1OIU,1OIY,1OKV,1OKW,1OL1,1OL2,1P2A,1P5E,1PF8,1PKD,1PW2,1PXI,1PXJ,1PXK,1PXL,1PXM,1PXN,1PXO,1PXP,1PYE,1QMZ,1R78,1URC,1URW,1V1K,1VYW,1VYZ,1W0X,1W8C,1W98,1WCC,1Y8Y,1Y91,1YKR,2A0C,2A4L,2B52,2B53,2B54,2B55,2BHE,2BHH,2BKZ,2BPM,2BTR,2BTS,2C4G,2C5N,2C5O,2C5V,2C5X,2C5Y,2C68,2C69,2C6I,2C6K,2C6L,2C6M,2C6O,2C6T,2CCH,2CCI,2CJM,2CLX,2DUV,2EXM,2FVD,2G9X,2I40,2J9M,2JGZ,2R3F,2R3G,2R3H,2R3I,2R3J,2R3K,2R3L,2R3M,2R3N,2R3O,2R3P,2R3Q,2R3R,2R64,2UUE,2UZB,2UZD,2UZE,2UZL,2UZN,2UZO,2V0D,2V22,2VTA,2VTH,2VTI,2VTJ,2VTL,2VTM,2VTN,2VTO,2VTP,2VTQ,2VTR,2VTS,2VTT,2VU3,2VV9,2W05,2W06,2W17,2W1H,2WEV,2WFY,2WHB,2WIH,2WIP,2WMA,2WMB,2WPA,2WXV,2X1N,2XMY,2XNB,3BHT,3BHU,3BHV,3DDP,3DDQ,3DOG,3EID,3EJ1,3EOC,3EZR,3EZV,3F5X,3FZ1,3IG7,3IGG,3LE6,3LFN,3LFQ,3LFS,3MY5,3NS9,3PJ8,3PXF,3PXQ,3PXR,3PXY,3PXZ,3PY0,3PY1,3QHR,3QHW,3QL8,3QQF,3QQG,3QQH,3QQJ,3QQK,3QQL,3QRT,3QRU,3QTQ,3QTR,3QTS,3QTU,3QTW,3QTX,3QTZ,3QU0,3QWJ,3QWK,3QX2,3QX4,3QXO,3QXP,3QZF,3QZG,3QZH,3QZI,3R1Q,3R1S,3R1Y,3R28,3R6X,3R71,3R73,3R7E,3R7I,3R7U,3R7V,3R7Y,3R83,3R8L,3R8M,3R8P,3R8U,3R8V,3R8Z,3R9D,3R9H,3R9N,3R9O,3RAH,3RAI,3RAK,3RAL,3RJC,3RK5,3RK7,3RK9,3RKB,3RM6,3RM7,3RMF,3RNI,3ROY,3RPO,3RPR,3RPV,3RPY,3RZB,3S00,3S0O,3S1H,3S2P,3SQQ,3SW4,3SW7,3TI1,3TIY,3TIZ,3TNW,3ULI,3UNJ,3UNK,3WBL,4ACM,4BCK,4BCM,4BCN,4BCO,4BCP,4BCQ,4BGH,4BZD,4CFM,4CFN,4CFU,4CFV,4CFW,4CFX,4D1X,4D1Z,4EK3,4EK4,4EK5,4EK6,4EK8,4EOQ,4EOR,4EOS,4ERW,4EZ3,4EZ7,4FKG,4FKI,4FKJ,4FKL,4FKO,4FKP,4FKQ,4FKR,4FKS,4FKT,4FKU,4FKV,4FKW,4FX3,4GCJ,4I3Z,4II5,4KD1,4LYN,4NJ3,4RJ3,5A14,5AND,5ANE,5ANG,5ANI,5ANJ,5ANK,5ANO,5CYI,5D1J,5FP5,5FP6,5IEV,5IEX,5IEY,5IF1,5JQ5,5JQ8,5K4J,5L2W,5LMK,5MHQ,5NEV,5OO0,5OSJ,5UQ1,5UQ2,5UQ3,6ATH,6GUB,6GUC,6GUE,6GUF,6GUH,6GUK,6GVA,6INL,6JGM,6OQI,6P3W,6Q3B,6Q3C,6Q3F,6Q48,6Q49,6Q4A,6Q4B,6Q4C,6Q4D,6Q4E,6Q4F,6Q4H,6Q4J,6Q4K,6RIJ,6SG4,7ACK,7B5L,7B5R,7B7S,7E34,7KJS,7M2F,7NVQ

> <UniProt (SwissProt) Recommended Name of Target Chain>
Cyclin-dependent kinase 2

> <UniProt (SwissProt) Entry Name of Target Chain>
CDK2_HUMAN

> <UniProt (SwissProt) Primary ID of Target Chain>
P24941

> <UniProt (SwissProt) Secondary ID(s) of Target Chain>
A8K7C6,O75100

> <UniProt (SwissProt) Alternative ID(s) of Target Chain>


> <UniProt (TrEMBL) Submitted Name of Target Chain>


> <UniProt (TrEMBL) Entry Name of Target Chain>


> <UniProt (TrEMBL) Primary ID of Target Chain>
A0A024RB77

> <UniProt (TrEMBL) Secondary ID(s) of Target Chain>


> <UniProt (TrEMBL) Alternative ID(s) of Target Chain>


$$$$
BindingDB_50229973_mol_1

Vconf v2.0 Academic SN VC001-00000579
 35 37  0  0  0  0  0  0  0  0999 V2000
    3.2170    1.4560    0.7210 C   0  0  0  0  0  0  0  0  0  0  0
    2.9680   -0.6550   -0.1200 N   0  0  0  0  0  0  0  0  0  0  0
    4.2950   -0.4940   -0.1610 C   0  0  0  0  0  0  0  0  0  0  0
    2.3400    0.4230    0.3680 C   0  0  0  0  0  0  0  0  0  0  0
   -2.7450    1.6330   -0.4320 N   0  3  0  0  0  0  0  0  0  0  0
    4.8700    1.0340    0.4110 S   0  0  0  0  0  0  0  0  0  0  0
    1.5810    3.0330    1.5390 N   0  0  0  0  0  0  0  0  0  0  0
    1.2110    4.2220    2.0790 C   0  0  0  0  0  0  0  0  0  0  0
    2.8740    2.7090    1.2730 C   0  0  0  0  0  0  0  0  0  0  0
   -2.5390    2.2930    0.7480 C   0  0  0  0  0  0  0  0  0  0  0
   -0.0720    4.5500    2.3650 N   0  0  0  0  0  0  0  0  0  0  0
   -1.3970    3.1030    0.9370 C   0  0  0  0  0  0  0  0  0  0  0
    2.1740    5.1280    2.3660 N   0  0  0  0  0  0  0  0  0  0  0
   -3.7770    1.0540   -0.6660 O   0  5  0  0  0  0  0  0  0  0  0
   -1.9040    1.5890   -1.2910 O   0  0  0  0  0  0  0  0  0  0  0
   -1.1590    3.7660    2.1590 C   0  0  0  0  0  0  0  0  0  0  0
    5.1130   -1.4490   -0.6150 N   0  0  0  0  0  0  0  0  0  0  0
    3.8730    3.6540    1.5700 C   0  0  0  0  0  0  0  0  0  0  0
    3.4820    4.8790    2.1260 C   0  0  0  0  0  0  0  0  0  0  0
    0.8780    0.4490    0.4780 C   0  0  0  0  0  0  0  0  0  0  0
   -3.4620    2.1830    1.8120 C   0  0  0  0  0  0  0  0  0  0  0
   -3.2500    2.8600    3.0240 C   0  0  0  0  0  0  0  0  0  0  0
   -2.1040    3.6510    3.1950 C   0  0  0  0  0  0  0  0  0  0  0
   -0.2160    5.4020    2.8030 H   0  0  0  0  0  0  0  0  0  0  0
   -0.7270    3.2090    0.1750 H   0  0  0  0  0  0  0  0  0  0  0
    6.0710   -1.3010   -0.6340 H   0  0  0  0  0  0  0  0  0  0  0
    4.7440   -2.2900   -0.9280 H   0  0  0  0  0  0  0  0  0  0  0
    4.8610    3.4670    1.3930 H   0  0  0  0  0  0  0  0  0  0  0
    4.1840    5.5840    2.3530 H   0  0  0  0  0  0  0  0  0  0  0
    0.4620   -0.5020    0.1440 H   0  0  0  0  0  0  0  0  0  0  0
    0.5840    0.6190    1.5140 H   0  0  0  0  0  0  0  0  0  0  0
    0.4830    1.2450   -0.1520 H   0  0  0  0  0  0  0  0  0  0  0
   -4.2970    1.6060    1.7050 H   0  0  0  0  0  0  0  0  0  0  0
   -3.9290    2.7740    3.7810 H   0  0  0  0  0  0  0  0  0  0  0
   -1.9560    4.1390    4.0790 H   0  0  0  0  0  0  0  0  0  0  0
  1  4  2  0  0  0  0
  1  6  1  0  0  0  0
  1  9  1  0  0  0  0
  2  3  2  0  0  0  0
  2  4  1  0  0  0  0
  3  6  1  0  0  0  0
  3 17  1  0  0  0  0
  4 20  1  0  0  0  0
  5 10  1  0  0  0  0
  5 14  1  0  0  0  0
  5 15  2  0  0  0  0
  7  8  1  0  0  0  0
  7  9  2  0  0  0  0
  8 11  1  0  0  0  0
  8 13  2  0  0  0  0
  9 18  1  0  0  0  0
 10 12  2  0  0  0  0
 10 21  1  0  0  0  0
 11 16  1  0  0  0  0
 11 24  1  0  0  0  0
 12 16  1  0  0  0  0
 12 25  1  0  0  0  0
 13 19  1  0  0  0  0
 16 23  2  0  0  0  0
 17 26  1  0  0  0  0
 17 27  1  0  0  0  0
 18 19  2  0  0  0  0
 18 28  1  0  0  0  0
 19 29  1  0  0  0  0
 20 30  1  0  0  0  0
 20 31  1  0  0  0  0
 20 32  1  0  0  0  0
 21 22  2  0  0  0  0
 21 33  1  0  0  0  0
 22 23  1  0  0  0  0
 22 34  1  0  0  0  0
 23 35  1  0  0  0  0
M  CHG  1   5   1
M  CHG  1  14  -1
M  END
> <From>
www.bindingDB.org

> <BindingDB Reactant_set_id>
50579853

> <Ligand InChI>
InChI=1S/C14H12N6O2S/c1-8-12(23-13(15)17-8)11-5-6-16-14(19-11)18-9-3-2-4-10(7-9)20(21)22/h2-7H,1H3,(H2,15,17)(H,16,18,19)

> <Ligand InChI Key>
DYTKVFHLKPDNRW-UHFFFAOYSA-N

> <BindingDB MonomerID>
50229973

> <BindingDB Ligand Name>
(4-(2-Amino-4-methylthiazol-5-yl)pyrimidin-2-yl)-(3-nitrophenyl)amine::4-methyl-5-(2-(3-nitrophenylamino)pyrimidin-4-yl)thiazol-2-amine::CHEMBL298445::[4-(2-AMINO-4-METHYL-THIAZOL-5-YL)-PYRIMIDIN-2-YL]-(3-NITRO-PHENYL)-AMINE

> <Target Name Assigned by Curator or DataSource>
Cyclin-dependent kinase 2

> <Target Source Organism According to Curator or DataSource>
Homo sapiens

> <Ki (nM)>
 2

> <IC50 (nM)>


> <Kd (nM)>


> <EC50 (nM)>


> <kon (M-1-s-1)>


> <koff (s-1)>


> <pH>


> <Temp C>


> <Curation/DataSource>
ChEMBL

> <Article DOI>
10.1021/jm901913s

> <PMID>
20462263

> <PubChem AID>


> <Patent Number>


> <Authors>
Wang, S; Midgley, CA; Scaerou, F; Grabarek, JB; Griffiths, G; Jackson, W; Kontopidis, G; McClue, SJ; McInnes, C; Meades, C; Mezna, M; Plater, A; Stuart, I; Thomas, MP; Wood, G; Clarke, RG; Blake, DG; Zheleva, DI; Lane, DP; Jackson, RC; Glover, DM; Fischer, PM

> <Institution>
Cyclacel Ltd

> <Link to Ligand in BindingDB>
http://www.bindingdb.org/bind/chemsearch/marvin/MolStructure.jsp?monomerid=50229973

> <Link to Ligand-Target Pair in BindingDB>
http://www.bindingdb.org/jsp/dbsearch/PrimarySearch_ki.jsp?energyterm=kJ/mole&tag=pol&polymerid=796&target=Cyclin-dependent+kinase+2&column=ki&startPg=0&Increment=50&submit=Search

> <Link to Ligand-Target Pair in BindingDB>
http://www.bindingdb.org/jsp/dbsearch/PrimarySearch_ki.jsp?energyterm=kJ/mole&tag=r21&monomerid=50229973&enzyme=Cyclin-dependent+kinase+2&column=ki&startPg=0&Increment=50&submit=Search

> <Ligand HET ID in PDB>
CK7

> <PDB ID(s) for Ligand-Target Complex>
1PXO,2WEV,4B9D

> <PubChem CID>
447961

> <PubChem SID>
104098225

> <ChEBI ID of Ligand>


> <ChEMBL ID of Ligand>
CHEMBL298445

> <DrugBank ID of Ligand>
DB02833

> <IUPHAR_GRAC ID of Ligand>


> <KEGG ID of Ligand>


> <ZINC ID of Ligand>
ZINC02047389

> <Number of Protein Chains in Target (bigger than 1 implies a multichain complex)>
1

> <BindingDB Target Chain Sequence>
MENFQKVEKIGEGTYGVVYKARNKLTGEVVALKKIRLDTETEGVPSTAIREISLLKELNHPNIVKLLDVIHTENKLYLVFEFLHQDLKKFMDASALTGIPLPLIKSYLFQLLQGLAFCHSHRVLHRDLKPQNLLINTEGAIKLADFGLARAFGVPVRTYTHEVVTLWYRAPEILLGCKYYSTAVDIWSLGCIFAEMVTRRALFPGDSEIDQLFRIFRTLGTPDEVVWPGVTSMPDYKPSFPKWARQDFSKVVPPLDEDGRSLLSQMLHYDPNKRISAKAALAHPFFQDVTKPVPHLRL

> <PDB ID(s) of Target Chain>
1CKP,1DI8,1DM2,1E1V,1E1X,1E9H,1F5Q,1FIN,1FQ1,1FVT,1FVV,1G5S,1GIH,1GY3,1GZ8,1H00,1H01,1H07,1H08,1H0V,1H0W,1H1P,1H1Q,1H1R,1H1S,1H24,1H25,1H26,1H27,1H28,1HCK,1HCL,1JST,1JSU,1JSV,1JVP,1KE5,1KE6,1KE7,1KE8,1KE9,1OGU,1OI9,1OIQ,1OIR,1OIU,1OIY,1OKV,1OKW,1OL1,1OL2,1P2A,1P5E,1PF8,1PKD,1PW2,1PXI,1PXJ,1PXK,1PXL,1PXM,1PXN,1PXO,1PXP,1PYE,1QMZ,1R78,1URC,1URW,1V1K,1VYW,1VYZ,1W0X,1W8C,1W98,1WCC,1Y8Y,1Y91,1YKR,2A0C,2A4L,2B52,2B53,2B54,2B55,2BHE,2BHH,2BKZ,2BPM,2BTR,2BTS,2C4G,2C5N,2C5O,2C5V,2C5X,2C5Y,2C68,2C69,2C6I,2C6K,2C6L,2C6M,2C6O,2C6T,2CCH,2CCI,2CJM,2CLX,2DUV,2EXM,2FVD,2G9X,2I40,2J9M,2JGZ,2R3F,2R3G,2R3H,2R3I,2R3J,2R3K,2R3L,2R3M,2R3N,2R3O,2R3P,2R3Q,2R3R,2R64,2UUE,2UZB,2UZD,2UZE,2UZL,2UZN,2UZO,2V0D,2V22,2VTA,2VTH,2VTI,2VTJ,2VTL,2VTM,2VTN,2VTO,2VTP,2VTQ,2VTR,2VTS,2VTT,2VU3,2VV9,2W05,2W06,2W17,2W1H,2WEV,2WFY,2WHB,2WIH,2WIP,2WMA,2WMB,2WPA,2WXV,2X1N,2XMY,2XNB,3BHT,3BHU,3BHV,3DDP,3DDQ,3DOG,3EID,3EJ1,3EOC,3EZR,3EZV,3F5X,3FZ1,3IG7,3IGG,3LE6,3LFN,3LFQ,3LFS,3MY5,3NS9,3PJ8,3PXF,3PXQ,3PXR,3PXY,3PXZ,3PY0,3PY1,3QHR,3QHW,3QL8,3QQF,3QQG,3QQH,3QQJ,3QQK,3QQL,3QRT,3QRU,3QTQ,3QTR,3QTS,3QTU,3QTW,3QTX,3QTZ,3QU0,3QWJ,3QWK,3QX2,3QX4,3QXO,3QXP,3QZF,3QZG,3QZH,3QZI,3R1Q,3R1S,3R1Y,3R28,3R6X,3R71,3R73,3R7E,3R7I,3R7U,3R7V,3R7Y,3R83,3R8L,3R8M,3R8P,3R8U,3R8V,3R8Z,3R9D,3R9H,3R9N,3R9O,3RAH,3RAI,3RAK,3RAL,3RJC,3RK5,3RK7,3RK9,3RKB,3RM6,3RM7,3RMF,3RNI,3ROY,3RPO,3RPR,3RPV,3RPY,3RZB,3S00,3S0O,3S1H,3S2P,3SQQ,3SW4,3SW7,3TI1,3TIY,3TIZ,3TNW,3ULI,3UNJ,3UNK,3WBL,4ACM,4BCK,4BCM,4BCN,4BCO,4BCP,4BCQ,4BGH,4BZD,4CFM,4CFN,4CFU,4CFV,4CFW,4CFX,4D1X,4D1Z,4EK3,4EK4,4EK5,4EK6,4EK8,4EOQ,4EOR,4EOS,4ERW,4EZ3,4EZ7,4FKG,4FKI,4FKJ,4FKL,4FKO,4FKP,4FKQ,4FKR,4FKS,4FKT,4FKU,4FKV,4FKW,4FX3,4GCJ,4I3Z,4II5,4KD1,4LYN,4NJ3,4RJ3,5A14,5AND,5ANE,5ANG,5ANI,5ANJ,5ANK,5ANO,5CYI,5D1J,5FP5,5FP6,5IEV,5IEX,5IEY,5IF1,5JQ5,5JQ8,5K4J,5L2W,5LMK,5MHQ,5NEV,5OO0,5OSJ,5UQ1,5UQ2,5UQ3,6ATH,6GUB,6GUC,6GUE,6GUF,6GUH,6GUK,6GVA,6INL,6JGM,6OQI,6P3W,6Q3B,6Q3C,6Q3F,6Q48,6Q49,6Q4A,6Q4B,6Q4C,6Q4D,6Q4E,6Q4F,6Q4H,6Q4J,6Q4K,6RIJ,6SG4,7ACK,7B5L,7B5R,7B7S,7E34,7KJS,7M2F,7NVQ

> <UniProt (SwissProt) Recommended Name of Target Chain>
Cyclin-dependent kinase 2

> <UniProt (SwissProt) Entry Name of Target Chain>
CDK2_HUMAN

> <UniProt (SwissProt) Primary ID of Target Chain>
P24941

> <UniProt (SwissProt) Secondary ID(s) of Target Chain>
A8K7C6,O75100

> <UniProt (SwissProt) Alternative ID(s) of Target Chain>


> <UniProt (TrEMBL) Submitted Name of Target Chain>


> <UniProt (TrEMBL) Entry Name of Target Chain>


> <UniProt (TrEMBL) Primary ID of Target Chain>
A0A024RB77

> <UniProt (TrEMBL) Secondary ID(s) of Target Chain>


> <UniProt (TrEMBL) Alternative ID(s) of Target Chain>


$$$$
BindingDB_50229973_mol_1

Vconf v2.0 Academic SN VC001-00000579
 35 37  0  0  0  0  0  0  0  0999 V2000
    3.2170    1.4560    0.7210 C   0  0  0  0  0  0  0  0  0  0  0
    2.9680   -0.6550   -0.1200 N   0  0  0  0  0  0  0  0  0  0  0
    4.2950   -0.4940   -0.1610 C   0  0  0  0  0  0  0  0  0  0  0
    2.3400    0.4230    0.3680 C   0  0  0  0  0  0  0  0  0  0  0
   -2.7450    1.6330   -0.4320 N   0  3  0  0  0  0  0  0  0  0  0
    4.8700    1.0340    0.4110 S   0  0  0  0  0  0  0  0  0  0  0
    1.5810    3.0330    1.5390 N   0  0  0  0  0  0  0  0  0  0  0
    1.2110    4.2220    2.0790 C   0  0  0  0  0  0  0  0  0  0  0
    2.8740    2.7090    1.2730 C   0  0  0  0  0  0  0  0  0  0  0
   -2.5390    2.2930    0.7480 C   0  0  0  0  0  0  0  0  0  0  0
   -0.0720    4.5500    2.3650 N   0  0  0  0  0  0  0  0  0  0  0
   -1.3970    3.1030    0.9370 C   0  0  0  0  0  0  0  0  0  0  0
    2.1740    5.1280    2.3660 N   0  0  0  0  0  0  0  0  0  0  0
   -3.7770    1.0540   -0.6660 O   0  5  0  0  0  0  0  0  0  0  0
   -1.9040    1.5890   -1.2910 O   0  0  0  0  0  0  0  0  0  0  0
   -1.1590    3.7660    2.1590 C   0  0  0  0  0  0  0  0  0  0  0
    5.1130   -1.4490   -0.6150 N   0  0  0  0  0  0  0  0  0  0  0
    3.8730    3.6540    1.5700 C   0  0  0  0  0  0  0  0  0  0  0
    3.4820    4.8790    2.1260 C   0  0  0  0  0  0  0  0  0  0  0
    0.8780    0.4490    0.4780 C   0  0  0  0  0  0  0  0  0  0  0
   -3.4620    2.1830    1.8120 C   0  0  0  0  0  0  0  0  0  0  0
   -3.2500    2.8600    3.0240 C   0  0  0  0  0  0  0  0  0  0  0
   -2.1040    3.6510    3.1950 C   0  0  0  0  0  0  0  0  0  0  0
   -0.2160    5.4020    2.8030 H   0  0  0  0  0  0  0  0  0  0  0
   -0.7270    3.2090    0.1750 H   0  0  0  0  0  0  0  0  0  0  0
    6.0710   -1.3010   -0.6340 H   0  0  0  0  0  0  0  0  0  0  0
    4.7440   -2.2900   -0.9280 H   0  0  0  0  0  0  0  0  0  0  0
    4.8610    3.4670    1.3930 H   0  0  0  0  0  0  0  0  0  0  0
    4.1840    5.5840    2.3530 H   0  0  0  0  0  0  0  0  0  0  0
    0.4620   -0.5020    0.1440 H   0  0  0  0  0  0  0  0  0  0  0
    0.5840    0.6190    1.5140 H   0  0  0  0  0  0  0  0  0  0  0
    0.4830    1.2450   -0.1520 H   0  0  0  0  0  0  0  0  0  0  0
   -4.2970    1.6060    1.7050 H   0  0  0  0  0  0  0  0  0  0  0
   -3.9290    2.7740    3.7810 H   0  0  0  0  0  0  0  0  0  0  0
   -1.9560    4.1390    4.0790 H   0  0  0  0  0  0  0  0  0  0  0
  1  4  2  0  0  0  0
  1  6  1  0  0  0  0
  1  9  1  0  0  0  0
  2  3  2  0  0  0  0
  2  4  1  0  0  0  0
  3  6  1  0  0  0  0
  3 17  1  0  0  0  0
  4 20  1  0  0  0  0
  5 10  1  0  0  0  0
  5 14  1  0  0  0  0
  5 15  2  0  0  0  0
  7  8  1  0  0  0  0
  7  9  2  0  0  0  0
  8 11  1  0  0  0  0
  8 13  2  0  0  0  0
  9 18  1  0  0  0  0
 10 12  2  0  0  0  0
 10 21  1  0  0  0  0
 11 16  1  0  0  0  0
 11 24  1  0  0  0  0
 12 16  1  0  0  0  0
 12 25  1  0  0  0  0
 13 19  1  0  0  0  0
 16 23  2  0  0  0  0
 17 26  1  0  0  0  0
 17 27  1  0  0  0  0
 18 19  2  0  0  0  0
 18 28  1  0  0  0  0
 19 29  1  0  0  0  0
 20 30  1  0  0  0  0
 20 31  1  0  0  0  0
 20 32  1  0  0  0  0
 21 22  2  0  0  0  0
 21 33  1  0  0  0  0
 22 23  1  0  0  0  0
 22 34  1  0  0  0  0
 23 35  1  0  0  0  0
M  CHG  1   5   1
M  CHG  1  14  -1
M  END
> <From>
www.bindingDB.org

> <BindingDB Reactant_set_id>
50519896

> <Ligand InChI>
InChI=1S/C14H12N6O2S/c1-8-12(23-13(15)17-8)11-5-6-16-14(19-11)18-9-3-2-4-10(7-9)20(21)22/h2-7H,1H3,(H2,15,17)(H,16,18,19)

> <Ligand InChI Key>
DYTKVFHLKPDNRW-UHFFFAOYSA-N

> <BindingDB MonomerID>
50229973

> <BindingDB Ligand Name>
(4-(2-Amino-4-methylthiazol-5-yl)pyrimidin-2-yl)-(3-nitrophenyl)amine::4-methyl-5-(2-(3-nitrophenylamino)pyrimidin-4-yl)thiazol-2-amine::CHEMBL298445::[4-(2-AMINO-4-METHYL-THIAZOL-5-YL)-PYRIMIDIN-2-YL]-(3-NITRO-PHENYL)-AMINE

> <Target Name Assigned by Curator or DataSource>
Cyclin-dependent kinase 2

> <Target Source Organism According to Curator or DataSource>
Homo sapiens

> <Ki (nM)>
 2.0

> <IC50 (nM)>


> <Kd (nM)>


> <EC50 (nM)>


> <kon (M-1-s-1)>


> <koff (s-1)>


> <pH>


> <Temp C>


> <Curation/DataSource>
ChEMBL

> <Article DOI>
10.1021/acs.jmedchem.6b00150

> <PMID>
27171036

> <PubChem AID>


> <Patent Number>


> <Authors>
Sonawane, YA; Taylor, MA; Napoleon, JV; Rana, S; Contreras, JI; Natarajan, A

> <Institution>
University of Nebraska Medical Center

> <Link to Ligand in BindingDB>
http://www.bindingdb.org/bind/chemsearch/marvin/MolStructure.jsp?monomerid=50229973

> <Link to Ligand-Target Pair in BindingDB>
http://www.bindingdb.org/jsp/dbsearch/PrimarySearch_ki.jsp?energyterm=kJ/mole&tag=pol&polymerid=796&target=Cyclin-dependent+kinase+2&column=ki&startPg=0&Increment=50&submit=Search

> <Link to Ligand-Target Pair in BindingDB>
http://www.bindingdb.org/jsp/dbsearch/PrimarySearch_ki.jsp?energyterm=kJ/mole&tag=r21&monomerid=50229973&enzyme=Cyclin-dependent+kinase+2&column=ki&startPg=0&Increment=50&submit=Search

> <Ligand HET ID in PDB>
CK7

> <PDB ID(s) for Ligand-Target Complex>
1PXO,2WEV,4B9D

> <PubChem CID>
447961

> <PubChem SID>
104098225

> <ChEBI ID of Ligand>


> <ChEMBL ID of Ligand>
CHEMBL298445

> <DrugBank ID of Ligand>
DB02833

> <IUPHAR_GRAC ID of Ligand>


> <KEGG ID of Ligand>


> <ZINC ID of Ligand>
ZINC02047389

> <Number of Protein Chains in Target (bigger than 1 implies a multichain complex)>
1

> <BindingDB Target Chain Sequence>
MENFQKVEKIGEGTYGVVYKARNKLTGEVVALKKIRLDTETEGVPSTAIREISLLKELNHPNIVKLLDVIHTENKLYLVFEFLHQDLKKFMDASALTGIPLPLIKSYLFQLLQGLAFCHSHRVLHRDLKPQNLLINTEGAIKLADFGLARAFGVPVRTYTHEVVTLWYRAPEILLGCKYYSTAVDIWSLGCIFAEMVTRRALFPGDSEIDQLFRIFRTLGTPDEVVWPGVTSMPDYKPSFPKWARQDFSKVVPPLDEDGRSLLSQMLHYDPNKRISAKAALAHPFFQDVTKPVPHLRL

> <PDB ID(s) of Target Chain>
1CKP,1DI8,1DM2,1E1V,1E1X,1E9H,1F5Q,1FIN,1FQ1,1FVT,1FVV,1G5S,1GIH,1GY3,1GZ8,1H00,1H01,1H07,1H08,1H0V,1H0W,1H1P,1H1Q,1H1R,1H1S,1H24,1H25,1H26,1H27,1H28,1HCK,1HCL,1JST,1JSU,1JSV,1JVP,1KE5,1KE6,1KE7,1KE8,1KE9,1OGU,1OI9,1OIQ,1OIR,1OIU,1OIY,1OKV,1OKW,1OL1,1OL2,1P2A,1P5E,1PF8,1PKD,1PW2,1PXI,1PXJ,1PXK,1PXL,1PXM,1PXN,1PXO,1PXP,1PYE,1QMZ,1R78,1URC,1URW,1V1K,1VYW,1VYZ,1W0X,1W8C,1W98,1WCC,1Y8Y,1Y91,1YKR,2A0C,2A4L,2B52,2B53,2B54,2B55,2BHE,2BHH,2BKZ,2BPM,2BTR,2BTS,2C4G,2C5N,2C5O,2C5V,2C5X,2C5Y,2C68,2C69,2C6I,2C6K,2C6L,2C6M,2C6O,2C6T,2CCH,2CCI,2CJM,2CLX,2DUV,2EXM,2FVD,2G9X,2I40,2J9M,2JGZ,2R3F,2R3G,2R3H,2R3I,2R3J,2R3K,2R3L,2R3M,2R3N,2R3O,2R3P,2R3Q,2R3R,2R64,2UUE,2UZB,2UZD,2UZE,2UZL,2UZN,2UZO,2V0D,2V22,2VTA,2VTH,2VTI,2VTJ,2VTL,2VTM,2VTN,2VTO,2VTP,2VTQ,2VTR,2VTS,2VTT,2VU3,2VV9,2W05,2W06,2W17,2W1H,2WEV,2WFY,2WHB,2WIH,2WIP,2WMA,2WMB,2WPA,2WXV,2X1N,2XMY,2XNB,3BHT,3BHU,3BHV,3DDP,3DDQ,3DOG,3EID,3EJ1,3EOC,3EZR,3EZV,3F5X,3FZ1,3IG7,3IGG,3LE6,3LFN,3LFQ,3LFS,3MY5,3NS9,3PJ8,3PXF,3PXQ,3PXR,3PXY,3PXZ,3PY0,3PY1,3QHR,3QHW,3QL8,3QQF,3QQG,3QQH,3QQJ,3QQK,3QQL,3QRT,3QRU,3QTQ,3QTR,3QTS,3QTU,3QTW,3QTX,3QTZ,3QU0,3QWJ,3QWK,3QX2,3QX4,3QXO,3QXP,3QZF,3QZG,3QZH,3QZI,3R1Q,3R1S,3R1Y,3R28,3R6X,3R71,3R73,3R7E,3R7I,3R7U,3R7V,3R7Y,3R83,3R8L,3R8M,3R8P,3R8U,3R8V,3R8Z,3R9D,3R9H,3R9N,3R9O,3RAH,3RAI,3RAK,3RAL,3RJC,3RK5,3RK7,3RK9,3RKB,3RM6,3RM7,3RMF,3RNI,3ROY,3RPO,3RPR,3RPV,3RPY,3RZB,3S00,3S0O,3S1H,3S2P,3SQQ,3SW4,3SW7,3TI1,3TIY,3TIZ,3TNW,3ULI,3UNJ,3UNK,3WBL,4ACM,4BCK,4BCM,4BCN,4BCO,4BCP,4BCQ,4BGH,4BZD,4CFM,4CFN,4CFU,4CFV,4CFW,4CFX,4D1X,4D1Z,4EK3,4EK4,4EK5,4EK6,4EK8,4EOQ,4EOR,4EOS,4ERW,4EZ3,4EZ7,4FKG,4FKI,4FKJ,4FKL,4FKO,4FKP,4FKQ,4FKR,4FKS,4FKT,4FKU,4FKV,4FKW,4FX3,4GCJ,4I3Z,4II5,4KD1,4LYN,4NJ3,4RJ3,5A14,5AND,5ANE,5ANG,5ANI,5ANJ,5ANK,5ANO,5CYI,5D1J,5FP5,5FP6,5IEV,5IEX,5IEY,5IF1,5JQ5,5JQ8,5K4J,5L2W,5LMK,5MHQ,5NEV,5OO0,5OSJ,5UQ1,5UQ2,5UQ3,6ATH,6GUB,6GUC,6GUE,6GUF,6GUH,6GUK,6GVA,6INL,6JGM,6OQI,6P3W,6Q3B,6Q3C,6Q3F,6Q48,6Q49,6Q4A,6Q4B,6Q4C,6Q4D,6Q4E,6Q4F,6Q4H,6Q4J,6Q4K,6RIJ,6SG4,7ACK,7B5L,7B5R,7B7S,7E34,7KJS,7M2F,7NVQ

> <UniProt (SwissProt) Recommended Name of Target Chain>
Cyclin-dependent kinase 2

> <UniProt (SwissProt) Entry Name of Target Chain>
CDK2_HUMAN

> <UniProt (SwissProt) Primary ID of Target Chain>
P24941

> <UniProt (SwissProt) Secondary ID(s) of Target Chain>
A8K7C6,O75100

> <UniProt (SwissProt) Alternative ID(s) of Target Chain>


> <UniProt (TrEMBL) Submitted Name of Target Chain>


> <UniProt (TrEMBL) Entry Name of Target Chain>


> <UniProt (TrEMBL) Primary ID of Target Chain>
A0A024RB77

> <UniProt (TrEMBL) Secondary ID(s) of Target Chain>


> <UniProt (TrEMBL) Alternative ID(s) of Target Chain>


$$$$
