# Mol2 written by MVD (www.molegro.com)

@<TRIPOS>MOLECULE
907183
   76    80    1     0     0
SMALL
USER_CHARGES


@<TRIPOS>ATOM
      1 N1         -2.2370    0.7900    0.6010 N.2       1     LIG1    0.0000
      2 C1         -2.2590   -0.5250    0.2780 C.2       1     LIG1    0.0000
      3 C2         -1.2530   -1.3760    0.7760 C.2       1     LIG1    0.0000
      4 C3         -0.2890   -0.8310    1.6440 C.2       1     LIG1    0.0000
      5 C4         -0.3130    0.5360    1.9690 C.2       1     LIG1    0.0000
      6 C5         -1.3090    1.3580    1.4140 C.2       1     LIG1    0.0000
      7 C6         -3.3350   -1.0270   -0.5880 C.3       1     LIG1    0.0000
      8 C7         -3.4110   -2.5630   -0.6150 C.3       1     LIG1    0.0000
      9 N2         -2.0520   -3.1160   -0.7830 N.3       1     LIG1    0.0000
     10 C8         -1.2200   -2.8050    0.4040 C.3       1     LIG1    0.0000
     11 N3         -1.3160    2.6810    1.7170 N.pl3     1     LIG1    0.0000
     12 C9         -2.1740    3.6080    1.2270 C.2       1     LIG1    0.0000
     13 N4         -3.1320    3.3270    0.3130 N.2       1     LIG1    0.0000
     14 C10        -4.0090    4.2230   -0.2170 C.2       1     LIG1    0.0000
     15 C11        -3.8940    5.5590    0.2500 C.2       1     LIG1    0.0000
     16 C12        -2.8980    5.8510    1.1980 C.2       1     LIG1    0.0000
     17 N5         -2.0700    4.8830    1.6560 N.2       1     LIG1    0.0000
     18 F1         -4.6420    6.5560   -0.1310 F         1     LIG1    0.0000
     19 C13        -4.9380    3.7120   -1.1900 C.2       1     LIG1    0.0000
     20 C14        -4.8860    2.3340   -1.5400 C.2       1     LIG1    0.0000
     21 C15        -5.7570    1.7660   -2.4830 C.2       1     LIG1    0.0000
     22 C16        -6.7020    2.6000   -3.0920 C.2       1     LIG1    0.0000
     23 C17        -6.8060    3.9560   -2.7990 C.2       1     LIG1    0.0000
     24 C18        -5.9200    4.5050   -1.8450 C.2       1     LIG1    0.0000
     25 F2         -5.6810    0.4970   -2.7790 F         1     LIG1    0.0000
     26 N6         -7.6140    2.2770   -4.0050 N.2       1     LIG1    0.0000
     27 C19        -8.2810    3.4080   -4.2820 C.2       1     LIG1    0.0000
     28 N7         -7.8130    4.4700   -3.5600 N.pl3     1     LIG1    0.0000
     29 C20        -9.3590    3.3200   -5.2770 C.3       1     LIG1    0.0000
     30 C21        -8.3230    5.8330   -3.6360 C.3       1     LIG1    0.0000
     31 C22        -2.0650   -4.5750   -1.0170 C.3       1     LIG1    0.0000
     32 C23        -2.7860   -4.9560   -2.3230 C.3       1     LIG1    0.0000
     33 N8         -2.4910   -4.0110   -3.4230 N.3       1     LIG1    0.0000
     34 C24        -1.0760   -4.1170   -3.8340 C.3       1     LIG1    0.0000
     35 C25        -3.3970   -4.2730   -4.5630 C.3       1     LIG1    0.0000
     36 C26        -8.1390    6.4040   -5.0620 C.3       1     LIG1    0.0000
     37 C27        -9.8030    5.8860   -3.1880 C.3       1     LIG1    0.0000
     38 C28        -7.6310    6.8820   -2.7340 C.3       1     LIG1    0.0000
     39 O1         -4.4070   -3.3250   -6.5390 O.3       1     LIG1    0.0000
     40 C29        -3.3990   -3.1080   -5.5620 C.3       1     LIG1    0.0000
     41 H1          0.4410   -1.4280    2.0330 H         1     LIG1    0.0000
     42 H2          0.3940    0.9260    2.5920 H         1     LIG1    0.0000
     43 H3         -4.2910   -0.6420   -0.2290 H         1     LIG1    0.0000
     44 H4         -3.1670   -0.6570   -1.6000 H         1     LIG1    0.0000
     45 H5         -3.8530   -2.9300    0.3140 H         1     LIG1    0.0000
     46 H6         -4.0520   -2.8500   -1.4480 H         1     LIG1    0.0000
     47 H7         -0.1910   -3.0820    0.1700 H         1     LIG1    0.0000
     48 H8         -1.5540   -3.3950    1.2600 H         1     LIG1    0.0000
     49 H9         -0.6430    2.9970    2.3390 H         1     LIG1    0.0000
     50 H10        -2.7900    6.8030    1.5490 H         1     LIG1    0.0000
     51 H11        -4.1970    1.7190   -1.1030 H         1     LIG1    0.0000
     52 H12        -5.9870    5.4840   -1.6260 H         1     LIG1    0.0000
     53 H13        -9.8690    4.2590   -5.4460 H         1     LIG1    0.0000
     54 H14        -8.9360    2.9800   -6.2230 H         1     LIG1    0.0000
     55 H15       -10.0910    2.5870   -4.9370 H         1     LIG1    0.0000
     56 H16        -1.0360   -4.9300   -1.0820 H         1     LIG1    0.0000
     57 H17        -2.5510   -5.0830   -0.1820 H         1     LIG1    0.0000
     58 H18        -2.5000   -5.9700   -2.6090 H         1     LIG1    0.0000
     59 H19        -3.8580   -4.9510   -2.1220 H         1     LIG1    0.0000
     60 H20        -0.8590   -3.4020   -4.6250 H         1     LIG1    0.0000
     61 H21        -0.4250   -3.8900   -2.9900 H         1     LIG1    0.0000
     62 H22        -0.8590   -5.1250   -4.1930 H         1     LIG1    0.0000
     63 H23        -3.1090   -5.1940   -5.0740 H         1     LIG1    0.0000
     64 H24        -4.4180   -4.3840   -4.1950 H         1     LIG1    0.0000
     65 H25        -8.5380    7.4180   -5.1110 H         1     LIG1    0.0000
     66 H26        -7.0760    6.4340   -5.3040 H         1     LIG1    0.0000
     67 H27        -8.6410    5.8080   -5.8160 H         1     LIG1    0.0000
     68 H28       -10.1820    6.9060   -3.2780 H         1     LIG1    0.0000
     69 H29       -10.4380    5.2350   -3.7800 H         1     LIG1    0.0000
     70 H30        -9.8740    5.5760   -2.1450 H         1     LIG1    0.0000
     71 H31        -8.0910    7.8610   -2.8820 H         1     LIG1    0.0000
     72 H32        -7.7480    6.6160   -1.6830 H         1     LIG1    0.0000
     73 H33        -6.5750    6.9670   -2.9910 H         1     LIG1    0.0000
     74 H34        -4.4820   -2.6120   -7.2080 H         1     LIG1    0.0000
     75 H35        -3.6050   -2.1760   -5.0350 H         1     LIG1    0.0000
     76 H36        -2.4340   -3.0360   -6.0630 H         1     LIG1    0.0000
@<TRIPOS>BOND
     1    1    2 2
     2    1    6 1
     3    2    3 1
     4    2    7 1
     5    3    4 2
     6    3   10 1
     7    4    5 1
     8    4   41 1
     9    5    6 2
    10    5   42 1
    11    6   11 1
    12    7    8 1
    13    7   43 1
    14    7   44 1
    15    8    9 1
    16    8   45 1
    17    8   46 1
    18    9   10 1
    19    9   31 1
    20   10   47 1
    21   10   48 1
    22   11   12 1
    23   11   49 1
    24   12   13 2
    25   12   17 1
    26   13   14 1
    27   14   15 2
    28   14   19 1
    29   15   16 1
    30   15   18 1
    31   16   17 2
    32   16   50 1
    33   19   20 2
    34   19   24 1
    35   20   21 1
    36   20   51 1
    37   21   22 2
    38   21   25 1
    39   22   23 1
    40   22   26 1
    41   23   24 2
    42   23   28 1
    43   24   52 1
    44   26   27 2
    45   27   28 1
    46   27   29 1
    47   28   30 1
    48   29   53 1
    49   29   54 1
    50   29   55 1
    51   30   36 1
    52   30   37 1
    53   30   38 1
    54   31   32 1
    55   31   56 1
    56   31   57 1
    57   32   33 1
    58   32   58 1
    59   32   59 1
    60   33   34 1
    61   33   35 1
    62   34   60 1
    63   34   61 1
    64   34   62 1
    65   35   40 1
    66   35   63 1
    67   35   64 1
    68   36   65 1
    69   36   66 1
    70   36   67 1
    71   37   68 1
    72   37   69 1
    73   37   70 1
    74   38   71 1
    75   38   72 1
    76   38   73 1
    77   39   40 1
    78   39   74 1
    79   40   75 1
    80   40   76 1
@<TRIPOS>SUBSTRUCTURE
     1     LIG1    1   GROUP 1   LIG 1
@<TRIPOS>MOLECULE
50434121
   53    55    1     0     0
SMALL
USER_CHARGES


@<TRIPOS>ATOM
      1 C1         23.9090  -25.7240   -1.0730 C.2       1     LIG2    0.0000
      2 N1         24.0930  -26.9000   -1.6790 N.2       1     LIG2    0.0000
      3 C2         22.9220  -24.9930   -1.7480 C.2       1     LIG2    0.0000
      4 N2         22.5640  -25.7760   -2.8010 N.pl3     1     LIG2    0.0000
      5 C3         23.2700  -26.9280   -2.7310 C.2       1     LIG2    0.0000
      6 C4         23.2060  -28.1090   -3.6030 C.3       1     LIG2    0.0000
      7 C5         21.6550  -25.4540   -3.8550 C.3       1     LIG2    0.0000
      8 C6         22.4130  -23.7210   -1.3370 C.2       1     LIG2    0.0000
      9 C7         21.2120  -23.1760   -1.8400 C.2       1     LIG2    0.0000
     10 C8         20.7390  -21.9710   -1.3110 C.2       1     LIG2    0.0000
     11 N3         21.4420  -21.3330   -0.3520 N.2       1     LIG2    0.0000
     12 C9         22.6150  -21.8150    0.1140 C.2       1     LIG2    0.0000
     13 N4         23.0660  -23.0010   -0.3800 N.2       1     LIG2    0.0000
     14 N5         23.2120  -21.0600    1.0700 N.pl3     1     LIG2    0.0000
     15 C10        24.4620  -21.1460    1.6020 C.2       1     LIG2    0.0000
     16 C11        25.5090  -21.9470    1.0970 C.2       1     LIG2    0.0000
     17 C12        26.7800  -21.9360    1.7010 C.2       1     LIG2    0.0000
     18 C13        27.0230  -21.1220    2.8220 C.2       1     LIG2    0.0000
     19 C14        25.9910  -20.3100    3.3210 C.2       1     LIG2    0.0000
     20 C15        24.7250  -20.3180    2.7120 C.2       1     LIG2    0.0000
     21 S1         28.5900  -21.0690    3.5710 S.o2      1     LIG2    0.0000
     22 N6         29.3600  -22.5590    3.4410 N.pl3     1     LIG2    0.0000
     23 O1         29.4760  -20.1250    2.6500 O.2       1     LIG2    0.0000
     24 O2         28.3680  -20.8300    5.1280 O.2       1     LIG2    0.0000
     25 C16        28.9640  -23.6600    4.2370 C.3       1     LIG2    0.0000
     26 C17        29.0200  -24.9580    3.4210 C.3       1     LIG2    0.0000
     27 O3         28.1900  -24.8470    2.2660 O.3       1     LIG2    0.0000
     28 C18        28.1720  -25.9650    1.3850 C.3       1     LIG2    0.0000
     29 C19        24.6420  -25.3800    0.1480 C.3       1     LIG2    0.0000
     30 H1         22.4550  -28.0060   -4.3810 H         1     LIG2    0.0000
     31 H2         24.1800  -28.2630   -4.0660 H         1     LIG2    0.0000
     32 H3         22.9590  -28.9820   -2.9980 H         1     LIG2    0.0000
     33 H4         21.7500  -26.1260   -4.7050 H         1     LIG2    0.0000
     34 H5         20.6300  -25.5180   -3.4900 H         1     LIG2    0.0000
     35 H6         21.8570  -24.4480   -4.2230 H         1     LIG2    0.0000
     36 H7         20.6490  -23.6470   -2.5380 H         1     LIG2    0.0000
     37 H8         19.8580  -21.5770   -1.6450 H         1     LIG2    0.0000
     38 H9         22.6620  -20.3420    1.4190 H         1     LIG2    0.0000
     39 H10        25.3670  -22.5100    0.2640 H         1     LIG2    0.0000
     40 H11        27.5290  -22.5110    1.3160 H         1     LIG2    0.0000
     41 H12        26.1640  -19.7070    4.1260 H         1     LIG2    0.0000
     42 H13        23.9890  -19.7170    3.0870 H         1     LIG2    0.0000
     43 H14        30.1450  -22.6320    2.8780 H         1     LIG2    0.0000
     44 H15        29.6450  -23.7460    5.0840 H         1     LIG2    0.0000
     45 H16        27.9520  -23.5030    4.6100 H         1     LIG2    0.0000
     46 H17        30.0520  -25.1440    3.1160 H         1     LIG2    0.0000
     47 H18        28.6740  -25.7850    4.0430 H         1     LIG2    0.0000
     48 H19        27.5440  -25.7310    0.5270 H         1     LIG2    0.0000
     49 H20        29.1830  -26.1820    1.0390 H         1     LIG2    0.0000
     50 H21        27.7680  -26.8380    1.9000 H         1     LIG2    0.0000
     51 H22        23.9500  -25.0750    0.9320 H         1     LIG2    0.0000
     52 H23        25.2050  -26.2460    0.4940 H         1     LIG2    0.0000
     53 H24        25.3410  -24.5770   -0.0690 H         1     LIG2    0.0000
@<TRIPOS>BOND
     1    1    2 1
     2    1    3 2
     3    1   29 1
     4    2    5 2
     5    3    4 1
     6    3    8 1
     7    4    5 1
     8    4    7 1
     9    5    6 1
    10    6   30 1
    11    6   31 1
    12    6   32 1
    13    7   33 1
    14    7   34 1
    15    7   35 1
    16    8    9 2
    17    8   13 1
    18    9   10 1
    19    9   36 1
    20   10   11 2
    21   10   37 1
    22   11   12 1
    23   12   13 2
    24   12   14 1
    25   14   15 1
    26   14   38 1
    27   15   16 2
    28   15   20 1
    29   16   17 1
    30   16   39 1
    31   17   18 2
    32   17   40 1
    33   18   19 1
    34   18   21 1
    35   19   20 2
    36   19   41 1
    37   20   42 1
    38   21   22 1
    39   21   23 2
    40   21   24 2
    41   22   25 1
    42   22   43 1
    43   25   26 1
    44   25   44 1
    45   25   45 1
    46   26   27 1
    47   26   46 1
    48   26   47 1
    49   27   28 1
    50   28   48 1
    51   28   49 1
    52   28   50 1
    53   29   51 1
    54   29   52 1
    55   29   53 1
@<TRIPOS>SUBSTRUCTURE
     1     LIG2    1   GROUP 1   LIG 1
@<TRIPOS>MOLECULE
50384213
   51    54    1     0     0
SMALL
USER_CHARGES


@<TRIPOS>ATOM
      1 C1         12.2800  -22.6010    1.0930 C.2       1     LIG3    0.0000
      2 C2         12.2760  -23.8500    0.4430 C.2       1     LIG3    0.0000
      3 C3         13.4080  -24.6970    0.6240 C.2       1     LIG3    0.0000
      4 N1         14.4000  -24.2220    1.4230 N.2       1     LIG3    0.0000
      5 C4         14.3890  -23.0190    2.0390 C.2       1     LIG3    0.0000
      6 N2         13.3200  -22.2190    1.8650 N.2       1     LIG3    0.0000
      7 C5         13.6410  -25.9950    0.0550 C.2       1     LIG3    0.0000
      8 N3         13.4320  -27.8760   -1.1870 N.pl3     1     LIG3    0.0000
      9 C6         12.8730  -26.6940   -0.8900 C.2       1     LIG3    0.0000
     10 C7         14.5520  -28.0060   -0.4760 C.2       1     LIG3    0.0000
     11 C8         14.7190  -26.8630    0.3090 C.2       1     LIG3    0.0000
     12 C9         15.8380  -26.7770    1.1640 C.2       1     LIG3    0.0000
     13 C10        16.7690  -27.8340    1.1980 C.2       1     LIG3    0.0000
     14 C11        16.5850  -28.9750    0.3910 C.2       1     LIG3    0.0000
     15 C12        15.4650  -29.0710   -0.4570 C.2       1     LIG3    0.0000
     16 Cl1        10.8770  -24.1880   -0.4540 Cl        1     LIG3    0.0000
     17 N4         15.4050  -22.5990    2.8190 N.pl3     1     LIG3    0.0000
     18 C13        16.5800  -23.3620    3.0580 C.3       1     LIG3    0.0000
     19 C14        17.4640  -23.4380    1.8000 C.3       1     LIG3    0.0000
     20 C15        18.7530  -24.2100    2.1140 C.3       1     LIG3    0.0000
     21 N5         19.5050  -23.5330    3.1950 N.3       1     LIG3    0.0000
     22 C16        18.6880  -23.4890    4.4250 C.3       1     LIG3    0.0000
     23 C17        17.3900  -22.7030    4.1840 C.3       1     LIG3    0.0000
     24 C18        20.7800  -24.2320    3.4750 C.3       1     LIG3    0.0000
     25 C19        21.7550  -24.0440    2.3940 C.2       1     LIG3    0.0000
     26 N6         22.1270  -22.7940    2.0480 N.am      1     LIG3    0.0000
     27 O1         22.2190  -25.0420    1.7990 O.2       1     LIG3    0.0000
     28 C20        23.0550  -22.5300    1.0100 C.3       1     LIG3    0.0000
     29 H1         11.4900  -21.9600    0.9950 H         1     LIG3    0.0000
     30 H2         13.0830  -28.5250   -1.8180 H         1     LIG3    0.0000
     31 H3         12.0170  -26.3750   -1.3310 H         1     LIG3    0.0000
     32 H4         15.9870  -25.9690    1.7630 H         1     LIG3    0.0000
     33 H5         17.5810  -27.7740    1.8130 H         1     LIG3    0.0000
     34 H6         17.2640  -29.7350    0.4230 H         1     LIG3    0.0000
     35 H7         15.3220  -29.8940   -1.0420 H         1     LIG3    0.0000
     36 H8         15.3160  -21.7380    3.2540 H         1     LIG3    0.0000
     37 H9         16.3050  -24.3690    3.3780 H         1     LIG3    0.0000
     38 H10        17.7200  -22.4300    1.4710 H         1     LIG3    0.0000
     39 H11        16.9330  -23.9470    0.9950 H         1     LIG3    0.0000
     40 H12        18.5010  -25.2300    2.4100 H         1     LIG3    0.0000
     41 H13        19.3540  -24.2460    1.2050 H         1     LIG3    0.0000
     42 H14        18.4420  -24.5020    4.7510 H         1     LIG3    0.0000
     43 H15        19.2470  -22.9900    5.2180 H         1     LIG3    0.0000
     44 H16        17.6390  -21.6770    3.9080 H         1     LIG3    0.0000
     45 H17        16.8000  -22.6940    5.1010 H         1     LIG3    0.0000
     46 H18        21.2230  -23.8270    4.3870 H         1     LIG3    0.0000
     47 H19        20.5960  -25.2970    3.6250 H         1     LIG3    0.0000
     48 H20        21.7340  -22.0480    2.5260 H         1     LIG3    0.0000
     49 H21        23.1900  -21.4530    0.9160 H         1     LIG3    0.0000
     50 H22        24.0170  -22.9920    1.2410 H         1     LIG3    0.0000
     51 H23        22.6810  -22.9270    0.0640 H         1     LIG3    0.0000
@<TRIPOS>BOND
     1    1    2 2
     2    1    6 1
     3    1   29 1
     4    2    3 1
     5    2   16 1
     6    3    4 2
     7    3    7 1
     8    4    5 1
     9    5    6 2
    10    5   17 1
    11    7    9 2
    12    7   11 1
    13    8    9 1
    14    8   10 1
    15    8   30 1
    16    9   31 1
    17   10   11 1
    18   10   15 2
    19   11   12 2
    20   12   13 1
    21   12   32 1
    22   13   14 2
    23   13   33 1
    24   14   15 1
    25   14   34 1
    26   15   35 1
    27   17   18 1
    28   17   36 1
    29   18   19 1
    30   18   23 1
    31   18   37 1
    32   19   20 1
    33   19   38 1
    34   19   39 1
    35   20   21 1
    36   20   40 1
    37   20   41 1
    38   21   22 1
    39   21   24 1
    40   22   23 1
    41   22   42 1
    42   22   43 1
    43   23   44 1
    44   23   45 1
    45   24   25 1
    46   24   46 1
    47   24   47 1
    48   25   26 1
    49   25   27 2
    50   26   28 1
    51   26   48 1
    52   28   49 1
    53   28   50 1
    54   28   51 1
@<TRIPOS>SUBSTRUCTURE
     1     LIG3    1   GROUP 1   LIG 1
@<TRIPOS>MOLECULE
907165
   49    53    1     0     0
SMALL
USER_CHARGES


@<TRIPOS>ATOM
      1 N1         -2.2600   -0.0960    0.2790 N.2       1     LIG4    0.0000
      2 C1         -2.0550   -1.4340    0.1880 C.2       1     LIG4    0.0000
      3 C2         -1.0020   -2.0310    0.9080 C.2       1     LIG4    0.0000
      4 C3         -0.2150   -1.2130    1.7380 C.2       1     LIG4    0.0000
      5 C4         -0.4630    0.1650    1.8160 C.2       1     LIG4    0.0000
      6 C5         -1.5080    0.7230    1.0590 C.2       1     LIG4    0.0000
      7 C6         -2.9480   -2.2320   -0.6610 C.3       1     LIG4    0.0000
      8 C7         -2.8100   -3.7470   -0.4210 C.3       1     LIG4    0.0000
      9 N2         -1.3900   -4.1200   -0.3490 N.3       1     LIG4    0.0000
     10 C8         -0.7390   -3.4810    0.8110 C.3       1     LIG4    0.0000
     11 N3         -1.7230    2.0550    1.1630 N.pl3     1     LIG4    0.0000
     12 C9         -2.6630    2.7900    0.5280 C.2       1     LIG4    0.0000
     13 N4         -3.5550    2.3190   -0.3810 N.2       1     LIG4    0.0000
     14 C10        -4.5020    3.0820   -1.0040 C.2       1     LIG4    0.0000
     15 C11        -4.5270    4.4620   -0.6600 C.2       1     LIG4    0.0000
     16 C12        -3.5990    4.9370    0.2780 C.2       1     LIG4    0.0000
     17 N5         -2.7020    4.1010    0.8400 N.2       1     LIG4    0.0000
     18 F1         -5.3250    5.3570   -1.1700 F         1     LIG4    0.0000
     19 C13        -5.3690    2.4280   -1.9500 C.2       1     LIG4    0.0000
     20 C14        -6.4870    3.0650   -2.5630 C.2       1     LIG4    0.0000
     21 C15        -7.3050    2.4150   -3.5080 C.2       1     LIG4    0.0000
     22 C16        -7.0020    1.0920   -3.8510 C.2       1     LIG4    0.0000
     23 C17        -5.9320    0.4310   -3.2660 C.2       1     LIG4    0.0000
     24 C18        -5.1180    1.0740   -2.3150 C.2       1     LIG4    0.0000
     25 F2         -8.3180    3.0330   -4.0480 F         1     LIG4    0.0000
     26 N6         -7.6030    0.2680   -4.7180 N.2       1     LIG4    0.0000
     27 C19        -6.9150   -0.8890   -4.6750 C.2       1     LIG4    0.0000
     28 N7         -5.8910   -0.8040   -3.7920 N.pl3     1     LIG4    0.0000
     29 C20        -7.2990   -2.0350   -5.5050 C.3       1     LIG4    0.0000
     30 C21        -4.9330   -1.8020   -3.4570 C.3       1     LIG4    0.0000
     31 H1          0.5460   -1.6210    2.2820 H         1     LIG4    0.0000
     32 H2          0.1130    0.7540    2.4190 H         1     LIG4    0.0000
     33 H3         -3.9780   -1.9450   -0.4530 H         1     LIG4    0.0000
     34 H4         -2.7190   -2.0090   -1.7030 H         1     LIG4    0.0000
     35 H5         -3.2830   -4.2830   -1.2440 H         1     LIG4    0.0000
     36 H6         -3.3090   -4.0210    0.5100 H         1     LIG4    0.0000
     37 H7         -0.9440   -3.7420   -1.1880 H         1     LIG4    0.0000
     38 H8          0.3350   -3.6450    0.7130 H         1     LIG4    0.0000
     39 H9         -1.0820   -3.9650    1.7270 H         1     LIG4    0.0000
     40 H10        -1.1430    2.5410    1.7690 H         1     LIG4    0.0000
     41 H11        -3.5910    5.9240    0.5380 H         1     LIG4    0.0000
     42 H12        -6.7450    4.0170   -2.3250 H         1     LIG4    0.0000
     43 H13        -4.3370    0.5570   -1.9090 H         1     LIG4    0.0000
     44 H14        -6.6520   -2.8920   -5.3340 H         1     LIG4    0.0000
     45 H15        -8.3260   -2.3160   -5.2720 H         1     LIG4    0.0000
     46 H16        -7.2380   -1.7500   -6.5560 H         1     LIG4    0.0000
     47 H17        -5.0500   -2.7050   -4.0530 H         1     LIG4    0.0000
     48 H18        -3.9270   -1.4120   -3.6220 H         1     LIG4    0.0000
     49 H19        -5.0500   -2.0680   -2.4070 H         1     LIG4    0.0000
@<TRIPOS>BOND
     1    1    2 2
     2    1    6 1
     3    2    3 1
     4    2    7 1
     5    3    4 2
     6    3   10 1
     7    4    5 1
     8    4   31 1
     9    5    6 2
    10    5   32 1
    11    6   11 1
    12    7    8 1
    13    7   33 1
    14    7   34 1
    15    8    9 1
    16    8   35 1
    17    8   36 1
    18    9   10 1
    19    9   37 1
    20   10   38 1
    21   10   39 1
    22   11   12 1
    23   11   40 1
    24   12   13 2
    25   12   17 1
    26   13   14 1
    27   14   15 2
    28   14   19 1
    29   15   16 1
    30   15   18 1
    31   16   17 2
    32   16   41 1
    33   19   20 2
    34   19   24 1
    35   20   21 1
    36   20   42 1
    37   21   22 2
    38   21   25 1
    39   22   23 1
    40   22   26 1
    41   23   24 2
    42   23   28 1
    43   24   43 1
    44   26   27 2
    45   27   28 1
    46   27   29 1
    47   28   30 1
    48   29   44 1
    49   29   45 1
    50   29   46 1
    51   30   47 1
    52   30   48 1
    53   30   49 1
@<TRIPOS>SUBSTRUCTURE
     1     LIG4    1   GROUP 1   LIG 1
@<TRIPOS>MOLECULE
50563573
   49    52    1     0     0
SMALL
USER_CHARGES


@<TRIPOS>ATOM
      1 C1         -1.8270   -8.7260    0.8800 C.2       1     LIG5    0.0000
      2 C2         -0.7690   -7.8410    0.5860 C.2       1     LIG5    0.0000
      3 C3         -0.9760   -6.4370    0.5340 C.2       1     LIG5    0.0000
      4 C4         -2.2700   -5.9170    0.7840 C.2       1     LIG5    0.0000
      5 N1         -4.2670   -8.7600    1.4200 N.pl3     1     LIG5    0.0000
      6 C5         -3.0960   -8.1820    1.1220 C.2       1     LIG5    0.0000
      7 C6         -3.3100   -6.8140    1.0760 C.2       1     LIG5    0.0000
      8 C7         -4.6560   -6.6370    1.3620 C.2       1     LIG5    0.0000
      9 N2         -5.1930   -7.8570    1.5630 N.2       1     LIG5    0.0000
     10 C8         -5.3770   -5.3650    1.4350 C.3       1     LIG5    0.0000
     11 C9          0.0860   -5.5590    0.2370 C.2       1     LIG5    0.0000
     12 S1         -0.1130   -3.8400    0.1540 S.3       1     LIG5    0.0000
     13 C10         1.5730   -3.8040   -0.2290 C.2       1     LIG5    0.0000
     14 N3          2.1610   -5.0060   -0.2680 N.2       1     LIG5    0.0000
     15 N4          1.3420   -5.9690   -0.0120 N.2       1     LIG5    0.0000
     16 N5          2.2560   -2.6730   -0.4750 N.pl3     1     LIG5    0.0000
     17 C11         1.6460   -1.3930   -0.4380 C.3       1     LIG5    0.0000
     18 C12         2.6630   -0.2980   -0.8060 C.3       1     LIG5    0.0000
     19 C13         3.1330   -0.4620   -2.2680 C.3       1     LIG5    0.0000
     20 C14         4.0630    0.6120   -2.6990 C.2       1     LIG5    0.0000
     21 C15         3.5270    1.9150   -2.7800 C.2       1     LIG5    0.0000
     22 C16         4.3210    3.0010   -3.1710 C.2       1     LIG5    0.0000
     23 C17         5.6680    2.7950   -3.4920 C.2       1     LIG5    0.0000
     24 C18         6.2120    1.5040   -3.4240 C.2       1     LIG5    0.0000
     25 C19         5.4310    0.3890   -3.0320 C.2       1     LIG5    0.0000
     26 N6          3.8040   -0.3640    0.1130 N.3       1     LIG5    0.0000
     27 C20         6.0520   -0.9690   -2.9820 C.3       1     LIG5    0.0000
     28 F1          7.3900   -1.0010   -3.3020 F         1     LIG5    0.0000
     29 F2          5.9620   -1.4970   -1.7170 F         1     LIG5    0.0000
     30 F3          5.4350   -1.8110   -3.8760 F         1     LIG5    0.0000
     31 H1         -1.6730   -9.7340    0.9150 H         1     LIG5    0.0000
     32 H2          0.1580   -8.2310    0.4080 H         1     LIG5    0.0000
     33 H3         -2.4570   -4.9140    0.7550 H         1     LIG5    0.0000
     34 H4         -4.4040   -9.7150    1.5150 H         1     LIG5    0.0000
     35 H5         -6.4240   -5.5500    1.6760 H         1     LIG5    0.0000
     36 H6         -4.9350   -4.7380    2.2110 H         1     LIG5    0.0000
     37 H7         -5.3140   -4.8520    0.4750 H         1     LIG5    0.0000
     38 H8          3.2020   -2.7320   -0.6820 H         1     LIG5    0.0000
     39 H9          0.8150   -1.3560   -1.1460 H         1     LIG5    0.0000
     40 H10         1.2640   -1.1990    0.5660 H         1     LIG5    0.0000
     41 H11         2.1720    0.6690   -0.6840 H         1     LIG5    0.0000
     42 H12         3.5810   -1.4470   -2.3650 H         1     LIG5    0.0000
     43 H13         2.2570   -0.4430   -2.9200 H         1     LIG5    0.0000
     44 H14         2.5450    2.0770   -2.5520 H         1     LIG5    0.0000
     45 H15         3.9190    3.9380   -3.2220 H         1     LIG5    0.0000
     46 H16         6.2520    3.5820   -3.7770 H         1     LIG5    0.0000
     47 H17         7.1950    1.3830   -3.6680 H         1     LIG5    0.0000
     48 H18         4.4170    0.4200   -0.1180 H         1     LIG5    0.0000
     49 H19         3.4400   -0.1910    1.0520 H         1     LIG5    0.0000
@<TRIPOS>BOND
     1    1    2 1
     2    1    6 2
     3    1   31 1
     4    2    3 2
     5    2   32 1
     6    3    4 1
     7    3   11 1
     8    4    7 2
     9    4   33 1
    10    5    6 1
    11    5    9 1
    12    5   34 1
    13    6    7 1
    14    7    8 1
    15    8    9 2
    16    8   10 1
    17   10   35 1
    18   10   36 1
    19   10   37 1
    20   11   12 1
    21   11   15 2
    22   12   13 1
    23   13   14 2
    24   13   16 1
    25   14   15 1
    26   16   17 1
    27   16   38 1
    28   17   18 1
    29   17   39 1
    30   17   40 1
    31   18   19 1
    32   18   26 1
    33   18   41 1
    34   19   20 1
    35   19   42 1
    36   19   43 1
    37   20   21 2
    38   20   25 1
    39   21   22 1
    40   21   44 1
    41   22   23 2
    42   22   45 1
    43   23   24 1
    44   23   46 1
    45   24   25 2
    46   24   47 1
    47   25   27 1
    48   26   48 1
    49   26   49 1
    50   27   28 1
    51   27   29 1
    52   27   30 1
@<TRIPOS>SUBSTRUCTURE
     1     LIG5    1   GROUP 1   LIG 1
@<TRIPOS>MOLECULE
51488966
   75    80    1     0     0
SMALL
USER_CHARGES


@<TRIPOS>ATOM
      1 O1          3.3060   -6.4410    3.2690 O.2       1     LIG6    0.0000
      2 C1          2.2090   -6.1140    3.7690 C.2       1     LIG6    0.0000
      3 N1          1.0550   -6.1190    3.0580 N.am      1     LIG6    0.0000
      4 N2          0.8330   -6.4330    1.8010 N.2       1     LIG6    0.0000
      5 C2         -0.5130   -6.3280    1.3480 C.3       1     LIG6    0.0000
      6 C3         -0.5720   -5.3560    0.1600 C.3       1     LIG6    0.0000
      7 O2          0.3730   -5.7610   -0.8290 O.3       1     LIG6    0.0000
      8 C4          1.7210   -5.8820   -0.3760 C.3       1     LIG6    0.0000
      9 C5          1.7810   -6.8510    0.8150 C.3       1     LIG6    0.0000
     10 N3          2.0870   -5.7270    5.0650 N.am      1     LIG6    0.0000
     11 C6          3.0380   -5.6090    6.0380 C.2       1     LIG6    0.0000
     12 C7          4.4230   -5.8800    5.8840 C.2       1     LIG6    0.0000
     13 C8          5.3280   -5.7210    6.9560 C.2       1     LIG6    0.0000
     14 C9          4.8820   -5.2860    8.2170 C.2       1     LIG6    0.0000
     15 C10         3.5150   -5.0210    8.3690 C.2       1     LIG6    0.0000
     16 C11         2.7770   -4.5840    9.4530 C.2       1     LIG6    0.0000
     17 C12         1.4640   -4.4760    9.1060 C.2       1     LIG6    0.0000
     18 C13         0.7810   -4.0300   10.2380 C.2       1     LIG6    0.0000
     19 C14        -0.5930   -3.7540   10.4480 C.2       1     LIG6    0.0000
     20 C15        -1.6050   -4.1990    9.5680 C.2       1     LIG6    0.0000
     21 C16        -2.9580   -3.9140    9.8190 C.2       1     LIG6    0.0000
     22 C17        -3.3350   -3.1800   10.9600 C.2       1     LIG6    0.0000
     23 C18        -4.7590   -2.8890   11.2150 C.3       1     LIG6    0.0000
     24 N4         -5.3680   -2.0960   10.1230 N.3       1     LIG6    0.0000
     25 C19        -4.8660   -0.7050   10.1210 C.3       1     LIG6    0.0000
     26 C20        -5.5180    0.0870    8.9790 C.3       1     LIG6    0.0000
     27 N5         -6.9850    0.1100    9.1450 N.3       1     LIG6    0.0000
     28 C21        -7.5880    0.9000    8.0520 C.3       1     LIG6    0.0000
     29 C22        -9.0720    1.1940    8.3120 C.3       1     LIG6    0.0000
     30 O3         -9.5420    2.1250    7.3410 O.3       1     LIG6    0.0000
     31 C23       -10.9110    2.5080    7.4360 C.3       1     LIG6    0.0000
     32 C24        -7.4900   -1.2780    9.1500 C.3       1     LIG6    0.0000
     33 C25        -6.8350   -2.0780   10.2860 C.3       1     LIG6    0.0000
     34 C26        -2.3350   -2.7390   11.8470 C.2       1     LIG6    0.0000
     35 C27        -0.9830   -3.0250   11.5950 C.2       1     LIG6    0.0000
     36 N6          1.7450   -3.8910   11.1860 N.2       1     LIG6    0.0000
     37 N7          2.9210   -4.2210   10.7280 N.pl3     1     LIG6    0.0000
     38 C28         2.6050   -5.1760    7.3100 C.2       1     LIG6    0.0000
     39 C29         1.3130   -4.8300    7.7640 C.2       1     LIG6    0.0000
     40 O4          0.2660   -4.8260    7.0800 O.2       1     LIG6    0.0000
     41 H1          0.2690   -5.8480    3.5570 H         1     LIG6    0.0000
     42 H2         -1.1730   -5.9660    2.1390 H         1     LIG6    0.0000
     43 H3         -0.8600   -7.3100    1.0240 H         1     LIG6    0.0000
     44 H4         -1.5740   -5.3620   -0.2690 H         1     LIG6    0.0000
     45 H5         -0.3340   -4.3470    0.5020 H         1     LIG6    0.0000
     46 H6          2.3430   -6.2600   -1.1870 H         1     LIG6    0.0000
     47 H7          2.0920   -4.9030   -0.0680 H         1     LIG6    0.0000
     48 H8          1.5090   -7.8480    0.4680 H         1     LIG6    0.0000
     49 H9          2.8040   -6.8850    1.1730 H         1     LIG6    0.0000
     50 H10         1.1850   -5.5000    5.3410 H         1     LIG6    0.0000
     51 H11         4.7940   -6.1960    4.9910 H         1     LIG6    0.0000
     52 H12         6.3180   -5.9220    6.8130 H         1     LIG6    0.0000
     53 H13         5.5340   -5.1700    8.9930 H         1     LIG6    0.0000
     54 H14        -1.3750   -4.7500    8.7450 H         1     LIG6    0.0000
     55 H15        -3.6720   -4.2460    9.1700 H         1     LIG6    0.0000
     56 H16        -5.2810   -3.8440   11.2980 H         1     LIG6    0.0000
     57 H17        -4.8820   -2.3560   12.1610 H         1     LIG6    0.0000
     58 H18        -5.0920   -0.2180   11.0710 H         1     LIG6    0.0000
     59 H19        -3.7860   -0.6980    9.9680 H         1     LIG6    0.0000
     60 H20        -5.1310    1.1070    9.0010 H         1     LIG6    0.0000
     61 H21        -5.2520   -0.3730    8.0260 H         1     LIG6    0.0000
     62 H22        -7.0720    1.8590    7.9780 H         1     LIG6    0.0000
     63 H23        -7.4850    0.3760    7.1000 H         1     LIG6    0.0000
     64 H24        -9.6520    0.2740    8.2390 H         1     LIG6    0.0000
     65 H25        -9.1860    1.6180    9.3110 H         1     LIG6    0.0000
     66 H26       -11.1370    3.2260    6.6480 H         1     LIG6    0.0000
     67 H27       -11.5500    1.6320    7.3180 H         1     LIG6    0.0000
     68 H28       -11.1010    2.9690    8.4060 H         1     LIG6    0.0000
     69 H29        -8.5680   -1.2830    9.3130 H         1     LIG6    0.0000
     70 H30        -7.2730   -1.7640    8.1970 H         1     LIG6    0.0000
     71 H31        -7.1030   -1.6260   11.2430 H         1     LIG6    0.0000
     72 H32        -7.2180   -3.0980   10.2560 H         1     LIG6    0.0000
     73 H33        -2.5890   -2.2070   12.6800 H         1     LIG6    0.0000
     74 H34        -0.2810   -2.6910   12.2580 H         1     LIG6    0.0000
     75 H35         3.7530   -4.2000   11.2250 H         1     LIG6    0.0000
@<TRIPOS>BOND
     1    1    2 2
     2    2    3 1
     3    2   10 1
     4    3    4 1
     5    3   41 1
     6    4    5 1
     7    4    9 1
     8    5    6 1
     9    5   42 1
    10    5   43 1
    11    6    7 1
    12    6   44 1
    13    6   45 1
    14    7    8 1
    15    8    9 1
    16    8   46 1
    17    8   47 1
    18    9   48 1
    19    9   49 1
    20   10   11 1
    21   10   50 1
    22   11   12 2
    23   11   38 1
    24   12   13 1
    25   12   51 1
    26   13   14 2
    27   13   52 1
    28   14   15 1
    29   14   53 1
    30   15   16 1
    31   15   38 2
    32   16   17 2
    33   16   37 1
    34   17   18 1
    35   17   39 1
    36   18   19 1
    37   18   36 2
    38   19   20 2
    39   19   35 1
    40   20   21 1
    41   20   54 1
    42   21   22 2
    43   21   55 1
    44   22   23 1
    45   22   34 1
    46   23   24 1
    47   23   56 1
    48   23   57 1
    49   24   25 1
    50   24   33 1
    51   25   26 1
    52   25   58 1
    53   25   59 1
    54   26   27 1
    55   26   60 1
    56   26   61 1
    57   27   28 1
    58   27   32 1
    59   28   29 1
    60   28   62 1
    61   28   63 1
    62   29   30 1
    63   29   64 1
    64   29   65 1
    65   30   31 1
    66   31   66 1
    67   31   67 1
    68   31   68 1
    69   32   33 1
    70   32   69 1
    71   32   70 1
    72   33   71 1
    73   33   72 1
    74   34   35 2
    75   34   73 1
    76   35   74 1
    77   36   37 1
    78   37   75 1
    79   38   39 1
    80   39   40 2
@<TRIPOS>SUBSTRUCTURE
     1     LIG6    1   GROUP 1   LIG 1
@<TRIPOS>MOLECULE
50937611
   47    50    1     0     0
SMALL
USER_CHARGES


@<TRIPOS>ATOM
      1 C1         -0.9550   -4.9510    1.6640 C.2       1     LIG7    0.0000
      2 C2         -1.0130   -4.0170    2.8000 C.3       1     LIG7    0.0000
      3 C3          0.7780   -1.7730    3.7900 C.2       1     LIG7    0.0000
      4 C4         -0.5700   -1.6610    3.2950 C.3       1     LIG7    0.0000
      5 O1         -0.8230   -2.6820    2.3310 O.3       1     LIG7    0.0000
      6 O2          2.5660   -3.2200    6.3480 O.3       1     LIG7    0.0000
      7 C5          2.3980   -2.0260    5.5790 C.3       1     LIG7    0.0000
      8 C6          1.0480   -1.9140    5.0900 C.2       1     LIG7    0.0000
      9 C7          2.4960   -4.4990    5.7100 C.3       1     LIG7    0.0000
     10 C8          4.5740   -5.2600    2.5930 C.2       1     LIG7    0.0000
     11 C9          3.4770   -5.0160    3.4540 C.2       1     LIG7    0.0000
     12 C10         3.6500   -4.7380    4.8220 C.2       1     LIG7    0.0000
     13 C11         4.9590   -4.7020    5.3280 C.2       1     LIG7    0.0000
     14 N1          6.0060   -4.9310    4.5020 N.2       1     LIG7    0.0000
     15 C12         5.8580   -5.2030    3.1820 C.2       1     LIG7    0.0000
     16 N2          3.0820   -5.6750    0.7660 N.2       1     LIG7    0.0000
     17 C13         4.3590   -5.5500    1.2130 C.2       1     LIG7    0.0000
     18 C14         5.3910   -5.7140    0.2640 C.2       1     LIG7    0.0000
     19 C15         5.0410   -5.9910   -1.0650 C.2       1     LIG7    0.0000
     20 N3          3.7390   -6.0940   -1.4210 N.2       1     LIG7    0.0000
     21 C16         2.7430   -5.9360   -0.5200 C.2       1     LIG7    0.0000
     22 C17         0.2210   -5.0210    0.8930 C.2       1     LIG7    0.0000
     23 C18         0.3400   -5.9380   -0.1740 C.2       1     LIG7    0.0000
     24 C19        -0.7620   -6.7560   -0.4900 C.2       1     LIG7    0.0000
     25 C20        -1.9460   -6.6840    0.2640 C.2       1     LIG7    0.0000
     26 C21        -2.0400   -5.7880    1.3420 C.2       1     LIG7    0.0000
     27 N4          1.4590   -6.0550   -0.9400 N.pl3     1     LIG7    0.0000
     28 H1         -0.2230   -4.2800    3.5070 H         1     LIG7    0.0000
     29 H2         -1.9740   -4.0800    3.3140 H         1     LIG7    0.0000
     30 H3          1.5230   -1.7450    3.1370 H         1     LIG7    0.0000
     31 H4         -1.3020   -1.7260    4.1020 H         1     LIG7    0.0000
     32 H5         -0.6760   -0.6930    2.8050 H         1     LIG7    0.0000
     33 H6          2.5960   -1.1740    6.2290 H         1     LIG7    0.0000
     34 H7          3.1200   -2.0080    4.7610 H         1     LIG7    0.0000
     35 H8          0.3040   -1.9410    5.7440 H         1     LIG7    0.0000
     36 H9          1.5570   -4.5780    5.1600 H         1     LIG7    0.0000
     37 H10         2.4960   -5.2650    6.4870 H         1     LIG7    0.0000
     38 H11         2.5250   -5.0410    3.0850 H         1     LIG7    0.0000
     39 H12         5.1240   -4.5020    6.3150 H         1     LIG7    0.0000
     40 H13         6.6980   -5.3690    2.6300 H         1     LIG7    0.0000
     41 H14         6.3750   -5.6340    0.5160 H         1     LIG7    0.0000
     42 H15         5.7700   -6.1150   -1.7690 H         1     LIG7    0.0000
     43 H16         0.9940   -4.3960    1.1170 H         1     LIG7    0.0000
     44 H17        -0.7020   -7.4150   -1.2670 H         1     LIG7    0.0000
     45 H18        -2.7360   -7.2860    0.0310 H         1     LIG7    0.0000
     46 H19        -2.9000   -5.7470    1.8900 H         1     LIG7    0.0000
     47 H20         1.3310   -6.2920   -1.8720 H         1     LIG7    0.0000
@<TRIPOS>BOND
     1    1    2 1
     2    1   22 2
     3    1   26 1
     4    2    5 1
     5    2   28 1
     6    2   29 1
     7    3    4 1
     8    3    8 2
     9    3   30 1
    10    4    5 1
    11    4   31 1
    12    4   32 1
    13    6    7 1
    14    6    9 1
    15    7    8 1
    16    7   33 1
    17    7   34 1
    18    8   35 1
    19    9   12 1
    20    9   36 1
    21    9   37 1
    22   10   11 1
    23   10   15 2
    24   10   17 1
    25   11   12 2
    26   11   38 1
    27   12   13 1
    28   13   14 2
    29   13   39 1
    30   14   15 1
    31   15   40 1
    32   16   17 2
    33   16   21 1
    34   17   18 1
    35   18   19 2
    36   18   41 1
    37   19   20 1
    38   19   42 1
    39   20   21 2
    40   21   27 1
    41   22   23 1
    42   22   43 1
    43   23   24 2
    44   23   27 1
    45   24   25 1
    46   24   44 1
    47   25   26 2
    48   25   45 1
    49   26   46 1
    50   27   47 1
@<TRIPOS>SUBSTRUCTURE
     1     LIG7    1   GROUP 1   LIG 1
@<TRIPOS>MOLECULE
907042
   64    69    1     0     0
SMALL
USER_CHARGES


@<TRIPOS>ATOM
      1 N1         -1.8430    1.2920    0.9160 N.2       1     LIG8    0.0000
      2 C1         -1.8880   -0.0200    1.2550 C.2       1     LIG8    0.0000
      3 C2         -0.7590   -0.8310    1.0320 C.2       1     LIG8    0.0000
      4 C3          0.3980   -0.2330    0.5000 C.2       1     LIG8    0.0000
      5 C4          0.4080    1.1330    0.1720 C.2       1     LIG8    0.0000
      6 C5         -0.7510    1.9000    0.3820 C.2       1     LIG8    0.0000
      7 C6         -3.1220   -0.5610    1.8440 C.3       1     LIG8    0.0000
      8 C7         -2.9400   -1.9740    2.4290 C.3       1     LIG8    0.0000
      9 N2         -2.1590   -2.8100    1.4940 N.3       1     LIG8    0.0000
     10 C8         -0.7850   -2.2690    1.3600 C.3       1     LIG8    0.0000
     11 N3         -0.7310    3.2150    0.0480 N.pl3     1     LIG8    0.0000
     12 C9         -1.7590    4.0880    0.1650 C.2       1     LIG8    0.0000
     13 N4         -2.9820    3.7500    0.6350 N.2       1     LIG8    0.0000
     14 C10        -4.0400    4.5970    0.7630 C.2       1     LIG8    0.0000
     15 C11        -3.8170    5.9420    0.3640 C.2       1     LIG8    0.0000
     16 C12        -2.5470    6.2910   -0.1240 C.2       1     LIG8    0.0000
     17 N5         -1.5620    5.3690   -0.2120 N.2       1     LIG8    0.0000
     18 F1         -4.7050    6.8950    0.4100 F         1     LIG8    0.0000
     19 C13        -5.2580    4.0360    1.2850 C.2       1     LIG8    0.0000
     20 C14        -5.2970    2.6500    1.6190 C.2       1     LIG8    0.0000
     21 C15        -6.4480    2.0280    2.1410 C.2       1     LIG8    0.0000
     22 C16        -7.5940    2.8100    2.3320 C.2       1     LIG8    0.0000
     23 C17        -7.5940    4.1600    2.0120 C.2       1     LIG8    0.0000
     24 C18        -6.4470    4.7850    1.4960 C.2       1     LIG8    0.0000
     25 F2         -6.4400    0.7580    2.4390 F         1     LIG8    0.0000
     26 N6         -8.8010    2.4800    2.8150 N.2       1     LIG8    0.0000
     27 C19        -9.5340    3.6100    2.7910 C.2       1     LIG8    0.0000
     28 N7         -8.8150    4.6390    2.2940 N.pl3     1     LIG8    0.0000
     29 C20       -10.9190    3.6650    3.2640 C.3       1     LIG8    0.0000
     30 C21        -9.2560    5.9790    2.1220 C.3       1     LIG8    0.0000
     31 C22        -2.0940   -4.2190    1.9420 C.3       1     LIG8    0.0000
     32 C23        -3.4330   -4.9490    1.7390 C.3       1     LIG8    0.0000
     33 C24        -9.0800    6.7380    0.8010 C.3       1     LIG8    0.0000
     34 C25       -10.4710    6.2870    1.2390 C.3       1     LIG8    0.0000
     35 N8         -3.8570   -4.8190    0.3440 N.3       1     LIG8    0.0000
     36 C26        -3.2900   -6.4370    2.0830 C.3       1     LIG8    0.0000
     37 H1          1.2340   -0.7950    0.3400 H         1     LIG8    0.0000
     38 H2          1.2480    1.5580   -0.2210 H         1     LIG8    0.0000
     39 H3         -3.4550    0.1000    2.6450 H         1     LIG8    0.0000
     40 H4         -3.8910   -0.5890    1.0720 H         1     LIG8    0.0000
     41 H5         -3.9290   -2.3980    2.5930 H         1     LIG8    0.0000
     42 H6         -2.4230   -1.9080    3.3890 H         1     LIG8    0.0000
     43 H7         -0.2870   -2.8200    0.5600 H         1     LIG8    0.0000
     44 H8         -0.2300   -2.4240    2.2870 H         1     LIG8    0.0000
     45 H9          0.0960    3.5660   -0.3140 H         1     LIG8    0.0000
     46 H10        -2.3590    7.2500   -0.4190 H         1     LIG8    0.0000
     47 H11        -4.4700    2.0680    1.4830 H         1     LIG8    0.0000
     48 H12        -6.5040    5.7770    1.2880 H         1     LIG8    0.0000
     49 H13       -11.3120    4.6780    3.1910 H         1     LIG8    0.0000
     50 H14       -11.5330    2.9970    2.6600 H         1     LIG8    0.0000
     51 H15       -10.9560    3.3440    4.3050 H         1     LIG8    0.0000
     52 H16        -9.1580    6.5050    3.0720 H         1     LIG8    0.0000
     53 H17        -1.3370   -4.7440    1.3570 H         1     LIG8    0.0000
     54 H18        -1.8110   -4.2640    2.9950 H         1     LIG8    0.0000
     55 H19        -4.1950   -4.5160    2.3860 H         1     LIG8    0.0000
     56 H20        -8.8190    7.7960    0.8150 H         1     LIG8    0.0000
     57 H21        -8.6050    6.2610   -0.0550 H         1     LIG8    0.0000
     58 H22       -11.2070    7.0210    1.5670 H         1     LIG8    0.0000
     59 H23       -10.9750    5.4860    0.6980 H         1     LIG8    0.0000
     60 H24        -4.8070   -5.1910    0.2860 H         1     LIG8    0.0000
     61 H25        -3.9170   -3.8160    0.1530 H         1     LIG8    0.0000
     62 H26        -4.2490   -6.9380    1.9480 H         1     LIG8    0.0000
     63 H27        -2.5480   -6.8990    1.4310 H         1     LIG8    0.0000
     64 H28        -2.9740   -6.5450    3.1210 H         1     LIG8    0.0000
@<TRIPOS>BOND
     1    1    2 2
     2    1    6 1
     3    2    3 1
     4    2    7 1
     5    3    4 2
     6    3   10 1
     7    4    5 1
     8    4   37 1
     9    5    6 2
    10    5   38 1
    11    6   11 1
    12    7    8 1
    13    7   39 1
    14    7   40 1
    15    8    9 1
    16    8   41 1
    17    8   42 1
    18    9   10 1
    19    9   31 1
    20   10   43 1
    21   10   44 1
    22   11   12 1
    23   11   45 1
    24   12   13 2
    25   12   17 1
    26   13   14 1
    27   14   15 2
    28   14   19 1
    29   15   16 1
    30   15   18 1
    31   16   17 2
    32   16   46 1
    33   19   20 2
    34   19   24 1
    35   20   21 1
    36   20   47 1
    37   21   22 2
    38   21   25 1
    39   22   23 1
    40   22   26 1
    41   23   24 2
    42   23   28 1
    43   24   48 1
    44   26   27 2
    45   27   28 1
    46   27   29 1
    47   28   30 1
    48   29   49 1
    49   29   50 1
    50   29   51 1
    51   30   33 1
    52   30   34 1
    53   30   52 1
    54   31   32 1
    55   31   53 1
    56   31   54 1
    57   32   35 1
    58   32   36 1
    59   32   55 1
    60   33   34 1
    61   33   56 1
    62   33   57 1
    63   34   58 1
    64   34   59 1
    65   35   60 1
    66   35   61 1
    67   36   62 1
    68   36   63 1
    69   36   64 1
@<TRIPOS>SUBSTRUCTURE
     1     LIG8    1   GROUP 1   LIG 1
@<TRIPOS>MOLECULE
50505116
   55    59    1     0     0
SMALL
USER_CHARGES


@<TRIPOS>ATOM
      1 C1          2.2130   -3.9730   -1.5430 C.3       1     LIG9    0.0000
      2 C2          1.0700   -4.8030   -1.1470 C.2       1     LIG9    0.0000
      3 O1          0.0580   -4.7640   -1.8820 O.2       1     LIG9    0.0000
      4 N1          1.0830   -5.5940   -0.0320 N.am      1     LIG9    0.0000
      5 C3          2.2100   -5.6830    0.8460 C.3       1     LIG9    0.0000
      6 C4          2.7010   -7.1380    0.9110 C.3       1     LIG9    0.0000
      7 C5          1.5490   -8.0660    1.3370 C.3       1     LIG9    0.0000
      8 C6          0.3650   -7.8780    0.3730 C.3       1     LIG9    0.0000
      9 C7         -0.0470   -6.3980    0.3250 C.3       1     LIG9    0.0000
     10 N2          1.9840   -9.4240    1.3400 N.pl3     1     LIG9    0.0000
     11 N3          2.4000  -10.0420    0.2750 N.2       1     LIG9    0.0000
     12 C8          2.7600  -11.2890    0.6130 C.2       1     LIG9    0.0000
     13 C9          2.5460  -11.4610    1.9700 C.2       1     LIG9    0.0000
     14 C10         2.0560  -10.2370    2.4150 C.2       1     LIG9    0.0000
     15 N4          2.8340  -12.5830    2.6710 N.pl3     1     LIG9    0.0000
     16 C11         1.9760  -13.2270    3.4930 C.2       1     LIG9    0.0000
     17 N5          0.6940  -12.8350    3.6800 N.2       1     LIG9    0.0000
     18 C12        -0.1900  -13.4430    4.5110 C.2       1     LIG9    0.0000
     19 C13         0.2750  -14.5840    5.2230 C.2       1     LIG9    0.0000
     20 C14         1.6070  -14.9860    5.0130 C.2       1     LIG9    0.0000
     21 N6          2.4140  -14.3090    4.1670 N.2       1     LIG9    0.0000
     22 Cl1        -0.6430  -15.5850    6.2400 Cl        1     LIG9    0.0000
     23 C15        -1.4800  -12.8290    4.5840 C.2       1     LIG9    0.0000
     24 N7         -2.0300  -11.9280    3.7290 N.pl3     1     LIG9    0.0000
     25 C16        -3.2470  -11.5830    4.2140 C.2       1     LIG9    0.0000
     26 N8         -3.5160  -12.2230    5.3550 N.2       1     LIG9    0.0000
     27 C17        -2.4440  -12.9930    5.5860 C.2       1     LIG9    0.0000
     28 C18        -4.0810  -10.6700    3.5540 C.2       1     LIG9    0.0000
     29 C19        -3.6210  -10.1270    2.3440 C.2       1     LIG9    0.0000
     30 C20        -2.3680  -10.5030    1.8290 C.2       1     LIG9    0.0000
     31 C21        -1.5750  -11.4170    2.5450 C.2       1     LIG9    0.0000
     32 C22         1.7140   -9.8610    3.7930 C.3       1     LIG9    0.0000
     33 H1          3.0820   -4.6070   -1.7170 H         1     LIG9    0.0000
     34 H2          1.9810   -3.4310   -2.4610 H         1     LIG9    0.0000
     35 H3          2.4340   -3.2540   -0.7540 H         1     LIG9    0.0000
     36 H4          3.0450   -5.0560    0.5330 H         1     LIG9    0.0000
     37 H5          1.9060   -5.3670    1.8450 H         1     LIG9    0.0000
     38 H6          3.0690   -7.4360   -0.0720 H         1     LIG9    0.0000
     39 H7          3.5140   -7.2140    1.6330 H         1     LIG9    0.0000
     40 H8          1.2230   -7.7650    2.3340 H         1     LIG9    0.0000
     41 H9          0.6480   -8.2040   -0.6290 H         1     LIG9    0.0000
     42 H10        -0.4790   -8.4740    0.7170 H         1     LIG9    0.0000
     43 H11        -0.4010   -6.0960    1.3110 H         1     LIG9    0.0000
     44 H12        -0.8750   -6.2960   -0.3790 H         1     LIG9    0.0000
     45 H13         3.1300  -11.9930   -0.0260 H         1     LIG9    0.0000
     46 H14         3.7140  -12.9730    2.5530 H         1     LIG9    0.0000
     47 H15         1.9860  -15.8050    5.4920 H         1     LIG9    0.0000
     48 H16        -2.3540  -13.5670    6.4200 H         1     LIG9    0.0000
     49 H17        -4.9930  -10.4160    3.9350 H         1     LIG9    0.0000
     50 H18        -4.2030   -9.4640    1.8310 H         1     LIG9    0.0000
     51 H19        -2.0420  -10.1230    0.9410 H         1     LIG9    0.0000
     52 H20        -0.6780  -11.6930    2.1510 H         1     LIG9    0.0000
     53 H21         1.9350  -10.6690    4.4890 H         1     LIG9    0.0000
     54 H22         2.2940   -8.9840    4.0810 H         1     LIG9    0.0000
     55 H23         0.6510   -9.6230    3.8470 H         1     LIG9    0.0000
@<TRIPOS>BOND
     1    1    2 1
     2    1   33 1
     3    1   34 1
     4    1   35 1
     5    2    3 2
     6    2    4 1
     7    4    5 1
     8    4    9 1
     9    5    6 1
    10    5   36 1
    11    5   37 1
    12    6    7 1
    13    6   38 1
    14    6   39 1
    15    7    8 1
    16    7   10 1
    17    7   40 1
    18    8    9 1
    19    8   41 1
    20    8   42 1
    21    9   43 1
    22    9   44 1
    23   10   11 1
    24   10   14 1
    25   11   12 2
    26   12   13 1
    27   12   45 1
    28   13   14 2
    29   13   15 1
    30   14   32 1
    31   15   16 1
    32   15   46 1
    33   16   17 2
    34   16   21 1
    35   17   18 1
    36   18   19 2
    37   18   23 1
    38   19   20 1
    39   19   22 1
    40   20   21 2
    41   20   47 1
    42   23   24 1
    43   23   27 2
    44   24   25 1
    45   24   31 1
    46   25   26 2
    47   25   28 1
    48   26   27 1
    49   27   48 1
    50   28   29 2
    51   28   49 1
    52   29   30 1
    53   29   50 1
    54   30   31 2
    55   30   51 1
    56   31   52 1
    57   32   53 1
    58   32   54 1
    59   32   55 1
@<TRIPOS>SUBSTRUCTURE
     1     LIG9    1   GROUP 1   LIG 1
@<TRIPOS>MOLECULE
50434122
   55    57    1     0     0
SMALL
USER_CHARGES


@<TRIPOS>ATOM
      1 C1          1.5680    1.4950    1.0510 C.2       1    LIG10    0.0000
      2 N1          1.8160    0.1830    1.0210 N.2       1    LIG10    0.0000
      3 C2          0.6290    1.8270    0.0730 C.2       1    LIG10    0.0000
      4 N2          0.3230    0.6570   -0.5370 N.pl3     1    LIG10    0.0000
      5 C3          1.0510   -0.3240    0.0450 C.2       1    LIG10    0.0000
      6 C4          1.0710   -1.7600   -0.2590 C.3       1    LIG10    0.0000
      7 C5         -0.6140    0.4900   -1.5960 C.3       1    LIG10    0.0000
      8 C6          0.1430    3.1370   -0.2050 C.2       1    LIG10    0.0000
      9 C7          0.5880    4.2570    0.5300 C.2       1    LIG10    0.0000
     10 C8          0.1050    5.5230    0.1850 C.2       1    LIG10    0.0000
     11 N3         -0.7670    5.6530   -0.8390 N.2       1    LIG10    0.0000
     12 C9         -1.2120    4.5910   -1.5470 C.2       1    LIG10    0.0000
     13 N4         -0.7490    3.3550   -1.2120 N.2       1    LIG10    0.0000
     14 N5         -2.0560    4.8900   -2.5680 N.pl3     1    LIG10    0.0000
     15 C10        -2.7230    4.0760   -3.4310 C.2       1    LIG10    0.0000
     16 C11        -2.8200    2.6740   -3.3220 C.2       1    LIG10    0.0000
     17 C12        -3.5270    1.9210   -4.2730 C.2       1    LIG10    0.0000
     18 C13        -4.1470    2.5590   -5.3600 C.2       1    LIG10    0.0000
     19 C14        -4.0750    3.9580   -5.4700 C.2       1    LIG10    0.0000
     20 C15        -3.3780    4.7090   -4.5080 C.2       1    LIG10    0.0000
     21 S1         -5.0200    1.6410   -6.5480 S.o2      1    LIG10    0.0000
     22 C16        -4.3280   -0.0150   -6.7380 C.3       1    LIG10    0.0000
     23 O1         -6.4500    1.3800   -5.9030 O.2       1    LIG10    0.0000
     24 O2         -4.8370    2.3550   -7.9570 O.2       1    LIG10    0.0000
     25 C17        -2.8570    0.0490   -7.1770 C.3       1    LIG10    0.0000
     26 C18        -2.3260   -1.3640   -7.4640 C.3       1    LIG10    0.0000
     27 N6         -0.8640   -1.3770   -7.6780 N.3       1    LIG10    1.0000
     28 C19        -0.4090   -2.7750   -7.7950 C.3       1    LIG10    0.0000
     29 C20        -0.4830   -0.6410   -8.8990 C.3       1    LIG10    0.0000
     30 H1          2.0140    2.1450    1.6980 H         1    LIG10    0.0000
     31 H2          0.3730   -2.0220   -1.0490 H         1    LIG10    0.0000
     32 H3          2.0770   -2.0420   -0.5700 H         1    LIG10    0.0000
     33 H4          0.8080   -2.3170    0.6400 H         1    LIG10    0.0000
     34 H5         -0.6490   -0.5310   -1.9700 H         1    LIG10    0.0000
     35 H6         -1.6060    0.7480   -1.2250 H         1    LIG10    0.0000
     36 H7         -0.3460    1.1410   -2.4290 H         1    LIG10    0.0000
     37 H8          1.2540    4.1710    1.2980 H         1    LIG10    0.0000
     38 H9          0.4150    6.3480    0.6990 H         1    LIG10    0.0000
     39 H10        -2.1850    5.8400   -2.7130 H         1    LIG10    0.0000
     40 H11        -2.3990    2.1930   -2.5370 H         1    LIG10    0.0000
     41 H12        -3.5890    0.9080   -4.1710 H         1    LIG10    0.0000
     42 H13        -4.5310    4.4300   -6.2520 H         1    LIG10    0.0000
     43 H14        -3.3380    5.7240   -4.6040 H         1    LIG10    0.0000
     44 H15        -4.4070   -0.5530   -5.7930 H         1    LIG10    0.0000
     45 H16        -4.9080   -0.5440   -7.4940 H         1    LIG10    0.0000
     46 H17        -2.7850    0.6590   -8.0760 H         1    LIG10    0.0000
     47 H18        -2.2590    0.5020   -6.3870 H         1    LIG10    0.0000
     48 H19        -2.5560   -1.9910   -6.6000 H         1    LIG10    0.0000
     49 H20        -2.8390   -1.7710   -8.3380 H         1    LIG10    0.0000
     50 H21         0.6740   -2.8000   -7.9180 H         1    LIG10    0.0000
     51 H22        -0.6680   -3.3250   -6.8890 H         1    LIG10    0.0000
     52 H23        -0.8790   -3.2580   -8.6540 H         1    LIG10    0.0000
     53 H24         0.5870   -0.7540   -9.0780 H         1    LIG10    0.0000
     54 H25        -1.0290   -1.0220   -9.7630 H         1    LIG10    0.0000
     55 H26        -0.6940    0.4220   -8.7790 H         1    LIG10    0.0000
@<TRIPOS>BOND
     1    1    2 1
     2    1    3 2
     3    1   30 1
     4    2    5 2
     5    3    4 1
     6    3    8 1
     7    4    5 1
     8    4    7 1
     9    5    6 1
    10    6   31 1
    11    6   32 1
    12    6   33 1
    13    7   34 1
    14    7   35 1
    15    7   36 1
    16    8    9 2
    17    8   13 1
    18    9   10 1
    19    9   37 1
    20   10   11 2
    21   10   38 1
    22   11   12 1
    23   12   13 2
    24   12   14 1
    25   14   15 1
    26   14   39 1
    27   15   16 2
    28   15   20 1
    29   16   17 1
    30   16   40 1
    31   17   18 2
    32   17   41 1
    33   18   19 1
    34   18   21 1
    35   19   20 2
    36   19   42 1
    37   20   43 1
    38   21   22 1
    39   21   23 2
    40   21   24 2
    41   22   25 1
    42   22   44 1
    43   22   45 1
    44   25   26 1
    45   25   46 1
    46   25   47 1
    47   26   27 1
    48   26   48 1
    49   26   49 1
    50   27   28 1
    51   27   29 1
    52   28   50 1
    53   28   51 1
    54   28   52 1
    55   29   53 1
    56   29   54 1
    57   29   55 1
@<TRIPOS>SUBSTRUCTURE
     1    LIG10    1   GROUP 1   LIG 1
@<TRIPOS>MOLECULE
51457298
   62    65    1     0     0
SMALL
USER_CHARGES


@<TRIPOS>ATOM
      1 C1          1.9780  -18.5630    0.8200 C.2       1    LIG11    0.0000
      2 C2          1.8720  -19.9220    0.5110 C.2       1    LIG11    0.0000
      3 C3          2.9870  -20.8070    0.6020 C.2       1    LIG11    0.0000
      4 C4          4.1840  -20.2260    1.0660 C.2       1    LIG11    0.0000
      5 N1          4.3030  -18.8870    1.3680 N.am      1    LIG11    0.0000
      6 C5          3.2150  -18.0540    1.2440 C.2       1    LIG11    0.0000
      7 C6          2.8780  -22.2030    0.2630 C.2       1    LIG11    0.0000
      8 C7          1.6150  -22.8550    0.3030 C.2       1    LIG11    0.0000
      9 C8          1.4860  -24.2310    0.0240 C.2       1    LIG11    0.0000
     10 N2          2.5730  -24.9690   -0.3110 N.2       1    LIG11    0.0000
     11 C9          3.9710  -23.0290   -0.1210 C.2       1    LIG11    0.0000
     12 C10         3.7890  -24.3880   -0.3880 C.2       1    LIG11    0.0000
     13 N3          4.9530  -24.9480   -0.7430 N.pl3     1    LIG11    0.0000
     14 C11         5.9040  -24.0010   -0.7570 C.2       1    LIG11    0.0000
     15 C12         5.3190  -22.7920   -0.3890 C.2       1    LIG11    0.0000
     16 C13         7.3130  -24.2140   -1.1260 C.3       1    LIG11    0.0000
     17 C14         7.6970  -23.3900   -2.3700 C.3       1    LIG11    0.0000
     18 C15         9.1790  -23.6080   -2.7060 C.3       1    LIG11    0.0000
     19 N4         10.0240  -23.2070   -1.5630 N.3       1    LIG11    0.0000
     20 C16         9.7170  -24.0520   -0.3880 C.3       1    LIG11    0.0000
     21 C17         8.2560  -23.8510    0.0370 C.3       1    LIG11    0.0000
     22 C18        11.4520  -23.2980   -1.9390 C.3       1    LIG11    0.0000
     23 C19        12.3290  -22.6230   -0.9670 C.2       1    LIG11    0.0000
     24 N5         12.2570  -21.2820   -0.7140 N.am      1    LIG11    1.0000
     25 O1         13.1710  -23.3270   -0.3640 O.2       1    LIG11    0.0000
     26 C20        11.3080  -20.4530   -1.3870 C.3       1    LIG11    0.0000
     27 C21        13.1470  -20.6990    0.2390 C.3       1    LIG11    0.0000
     28 O2          3.2860  -16.8330    1.5090 O.2       1    LIG11    0.0000
     29 C22         5.5730  -18.3750    1.8210 C.3       1    LIG11    0.0000
     30 C23         5.9960  -19.0080    3.1580 C.3       1    LIG11    0.0000
     31 C24         6.6770  -18.5790    0.7670 C.3       1    LIG11    0.0000
     32 H1          1.1680  -17.9490    0.7310 H         1    LIG11    0.0000
     33 H2          0.9670  -20.2580    0.1830 H         1    LIG11    0.0000
     34 H3          4.9940  -20.8160    1.2350 H         1    LIG11    0.0000
     35 H4          0.7710  -22.3510    0.5730 H         1    LIG11    0.0000
     36 H5          0.5700  -24.6760    0.0780 H         1    LIG11    0.0000
     37 H6          5.0800  -25.8800   -0.9790 H         1    LIG11    0.0000
     38 H7          5.8050  -21.8970   -0.3600 H         1    LIG11    0.0000
     39 H8          7.4510  -25.2710   -1.3610 H         1    LIG11    0.0000
     40 H9          7.0900  -23.7000   -3.2220 H         1    LIG11    0.0000
     41 H10         7.5350  -22.3270   -2.1830 H         1    LIG11    0.0000
     42 H11         9.4250  -22.9970   -3.5760 H         1    LIG11    0.0000
     43 H12         9.3480  -24.6580   -2.9530 H         1    LIG11    0.0000
     44 H13        10.3550  -23.7730    0.4510 H         1    LIG11    0.0000
     45 H14         9.8860  -25.1050   -0.6250 H         1    LIG11    0.0000
     46 H15         8.1170  -22.8060    0.3220 H         1    LIG11    0.0000
     47 H16         8.0440  -24.4870    0.8980 H         1    LIG11    0.0000
     48 H17        11.7390  -24.3480   -2.0250 H         1    LIG11    0.0000
     49 H18        11.6080  -22.8240   -2.9090 H         1    LIG11    0.0000
     50 H19        11.4260  -19.4070   -1.1030 H         1    LIG11    0.0000
     51 H20        11.4430  -20.5300   -2.4670 H         1    LIG11    0.0000
     52 H21        10.2940  -20.7620   -1.1280 H         1    LIG11    0.0000
     53 H22        12.9750  -19.6280    0.3430 H         1    LIG11    0.0000
     54 H23        13.0000  -21.1680    1.2140 H         1    LIG11    0.0000
     55 H24        14.1800  -20.8540   -0.0780 H         1    LIG11    0.0000
     56 H25         5.5140  -17.2990    1.9970 H         1    LIG11    0.0000
     57 H26         6.9050  -18.5250    3.5170 H         1    LIG11    0.0000
     58 H27         5.2040  -18.8660    3.8950 H         1    LIG11    0.0000
     59 H28         6.1870  -20.0750    3.0360 H         1    LIG11    0.0000
     60 H29         7.5900  -18.0820    1.0970 H         1    LIG11    0.0000
     61 H30         6.8840  -19.6410    0.6280 H         1    LIG11    0.0000
     62 H31         6.3600  -18.1460   -0.1820 H         1    LIG11    0.0000
@<TRIPOS>BOND
     1    1    2 2
     2    1    6 1
     3    1   32 1
     4    2    3 1
     5    2   33 1
     6    3    4 2
     7    3    7 1
     8    4    5 1
     9    4   34 1
    10    5    6 1
    11    5   29 1
    12    6   28 2
    13    7    8 2
    14    7   11 1
    15    8    9 1
    16    8   35 1
    17    9   10 2
    18    9   36 1
    19   10   12 1
    20   11   12 2
    21   11   15 1
    22   12   13 1
    23   13   14 1
    24   13   37 1
    25   14   15 2
    26   14   16 1
    27   15   38 1
    28   16   17 1
    29   16   21 1
    30   16   39 1
    31   17   18 1
    32   17   40 1
    33   17   41 1
    34   18   19 1
    35   18   42 1
    36   18   43 1
    37   19   20 1
    38   19   22 1
    39   20   21 1
    40   20   44 1
    41   20   45 1
    42   21   46 1
    43   21   47 1
    44   22   23 1
    45   22   48 1
    46   22   49 1
    47   23   24 1
    48   23   25 2
    49   24   26 1
    50   24   27 1
    51   26   50 1
    52   26   51 1
    53   26   52 1
    54   27   53 1
    55   27   54 1
    56   27   55 1
    57   29   30 1
    58   29   31 1
    59   29   56 1
    60   30   57 1
    61   30   58 1
    62   30   59 1
    63   31   60 1
    64   31   61 1
    65   31   62 1
@<TRIPOS>SUBSTRUCTURE
     1    LIG11    1   GROUP 1   LIG 1
@<TRIPOS>MOLECULE
50649077
   52    55    1     0     0
SMALL
USER_CHARGES


@<TRIPOS>ATOM
      1 N1         25.2090  -15.8460    1.1110 N.pl3     1    LIG12    0.0000
      2 C1         26.3970  -15.7840    1.8930 C.3       1    LIG12    0.0000
      3 C2         27.5180  -15.4830    0.8930 C.3       1    LIG12    0.0000
      4 C3         26.9710  -16.0280   -0.4260 C.3       1    LIG12    0.0000
      5 C4         25.4570  -15.8330   -0.2900 C.3       1    LIG12    0.0000
      6 O1         27.2820  -17.4120   -0.5450 O.3       1    LIG12    0.0000
      7 O2         27.7240  -14.0780    0.7940 O.3       1    LIG12    0.0000
      8 C5         23.9550  -15.9120    1.6530 C.2       1    LIG12    0.0000
      9 N2         18.5320  -13.4620   -0.6300 N.2       1    LIG12    0.0000
     10 C6         18.1720  -14.5450    0.1010 C.2       1    LIG12    0.0000
     11 C7         19.1470  -15.2310    0.8450 C.2       1    LIG12    0.0000
     12 C8         20.4780  -14.7630    0.8180 C.2       1    LIG12    0.0000
     13 N3         20.7520  -13.6750    0.0490 N.2       1    LIG12    0.0000
     14 C9         19.8080  -13.0240   -0.6650 C.2       1    LIG12    0.0000
     15 N4         20.1340  -11.9550   -1.3980 N.pl3     1    LIG12    0.0000
     16 C10        21.5420  -15.3820    1.5330 C.2       1    LIG12    0.0000
     17 C11        22.8520  -15.3240    1.0000 C.2       1    LIG12    0.0000
     18 C12        23.7360  -16.5720    2.8780 C.2       1    LIG12    0.0000
     19 C13        22.4510  -16.6360    3.4350 C.2       1    LIG12    0.0000
     20 C14        21.3610  -16.0430    2.7750 C.2       1    LIG12    0.0000
     21 O3         20.1580  -16.1030    3.3930 O.3       1    LIG12    0.0000
     22 C15        16.7610  -14.9810    0.1000 C.3       1    LIG12    0.0000
     23 C16        15.8480  -13.8730    0.6620 C.3       1    LIG12    0.0000
     24 N5         14.4480  -14.3260    0.6810 N.3       1    LIG12    0.0000
     25 C17        13.9830  -14.6140   -0.6840 C.3       1    LIG12    0.0000
     26 C18        14.8160  -15.7460   -1.3020 C.3       1    LIG12    0.0000
     27 C19        16.3010  -15.3530   -1.3230 C.3       1    LIG12    0.0000
     28 H1         26.5820  -16.7460    2.3750 H         1    LIG12    0.0000
     29 H2         26.3410  -14.9940    2.6430 H         1    LIG12    0.0000
     30 H3         28.4480  -15.9780    1.1770 H         1    LIG12    0.0000
     31 H4         27.3670  -15.4810   -1.2830 H         1    LIG12    0.0000
     32 H5         24.9260  -16.6410   -0.7970 H         1    LIG12    0.0000
     33 H6         25.1690  -14.8700   -0.7140 H         1    LIG12    0.0000
     34 H7         26.9080  -17.8430   -1.3420 H         1    LIG12    0.0000
     35 H8         28.3990  -13.8150    0.1340 H         1    LIG12    0.0000
     36 H9         18.8860  -16.0580    1.3810 H         1    LIG12    0.0000
     37 H10        21.0520  -11.6450   -1.4180 H         1    LIG12    0.0000
     38 H11        19.4510  -11.4930   -1.9060 H         1    LIG12    0.0000
     39 H12        23.0100  -14.8450    0.1110 H         1    LIG12    0.0000
     40 H13        24.5130  -17.0100    3.3720 H         1    LIG12    0.0000
     41 H14        22.3120  -17.1090    4.3280 H         1    LIG12    0.0000
     42 H15        20.1630  -16.5670    4.2560 H         1    LIG12    0.0000
     43 H16        16.6440  -15.8630    0.7340 H         1    LIG12    0.0000
     44 H17        15.9310  -12.9700    0.0540 H         1    LIG12    0.0000
     45 H18        16.1480  -13.6380    1.6850 H         1    LIG12    0.0000
     46 H19        13.8870  -13.5450    1.0280 H         1    LIG12    0.0000
     47 H20        14.0640  -13.7180   -1.3020 H         1    LIG12    0.0000
     48 H21        12.9380  -14.9220   -0.6450 H         1    LIG12    0.0000
     49 H22        14.6890  -16.6530   -0.7100 H         1    LIG12    0.0000
     50 H23        14.4760  -15.9340   -2.3210 H         1    LIG12    0.0000
     51 H24        16.4320  -14.5010   -1.9930 H         1    LIG12    0.0000
     52 H25        16.8880  -16.1930   -1.6960 H         1    LIG12    0.0000
@<TRIPOS>BOND
     1    1    2 1
     2    1    5 1
     3    1    8 1
     4    2    3 1
     5    2   28 1
     6    2   29 1
     7    3    4 1
     8    3    7 1
     9    3   30 1
    10    4    5 1
    11    4    6 1
    12    4   31 1
    13    5   32 1
    14    5   33 1
    15    6   34 1
    16    7   35 1
    17    8   17 2
    18    8   18 1
    19    9   10 1
    20    9   14 2
    21   10   11 2
    22   10   22 1
    23   11   12 1
    24   11   36 1
    25   12   13 2
    26   12   16 1
    27   13   14 1
    28   14   15 1
    29   15   37 1
    30   15   38 1
    31   16   17 1
    32   16   20 2
    33   17   39 1
    34   18   19 2
    35   18   40 1
    36   19   20 1
    37   19   41 1
    38   20   21 1
    39   21   42 1
    40   22   23 1
    41   22   27 1
    42   22   43 1
    43   23   24 1
    44   23   44 1
    45   23   45 1
    46   24   25 1
    47   24   46 1
    48   25   26 1
    49   25   47 1
    50   25   48 1
    51   26   27 1
    52   26   49 1
    53   26   50 1
    54   27   51 1
    55   27   52 1
@<TRIPOS>SUBSTRUCTURE
     1    LIG12    1   GROUP 1   LIG 1
@<TRIPOS>MOLECULE
50937610
   51    54    1     0     0
SMALL
USER_CHARGES


@<TRIPOS>ATOM
      1 C1         24.6070    0.6520    1.1440 C.2       1    LIG13    0.0000
      2 C2         24.9580    0.3570    2.5460 C.3       1    LIG13    0.0000
      3 C3         24.9530   -2.0360    4.3660 C.2       1    LIG13    0.0000
      4 C4         26.0870   -1.2160    4.0290 C.3       1    LIG13    0.0000
      5 N1         25.9890   -0.7060    2.6440 N.3       1    LIG13    0.0000
      6 O1         22.6740   -3.4880    5.0000 O.3       1    LIG13    0.0000
      7 C5         23.6870   -3.3440    5.9990 C.3       1    LIG13    0.0000
      8 C6         24.7810   -2.4890    5.6110 C.2       1    LIG13    0.0000
      9 C7         21.6770   -2.4700    4.9050 C.3       1    LIG13    0.0000
     10 C8         20.3140   -3.0990    1.4080 C.2       1    LIG13    0.0000
     11 C9         21.1730   -2.7410    2.4710 C.2       1    LIG13    0.0000
     12 C10        20.7520   -2.8090    3.8130 C.2       1    LIG13    0.0000
     13 C11        19.4370   -3.2310    4.0730 C.2       1    LIG13    0.0000
     14 N2         18.6210   -3.5720    3.0470 N.2       1    LIG13    0.0000
     15 C12        19.0120   -3.5250    1.7500 C.2       1    LIG13    0.0000
     16 N3         21.7160   -2.1070   -0.2560 N.2       1    LIG13    0.0000
     17 C13        20.7580   -3.0150    0.0630 C.2       1    LIG13    0.0000
     18 C14        20.2530   -3.8340   -0.9680 C.2       1    LIG13    0.0000
     19 C15        20.7740   -3.6720   -2.2580 C.2       1    LIG13    0.0000
     20 N4         21.7280   -2.7420   -2.4940 N.2       1    LIG13    0.0000
     21 C16        22.2100   -1.9500   -1.5090 C.2       1    LIG13    0.0000
     22 C17        24.0480   -0.3560    0.3340 C.2       1    LIG13    0.0000
     23 C18        23.6880   -0.0940   -1.0060 C.2       1    LIG13    0.0000
     24 C19        23.9290    1.1870   -1.5370 C.2       1    LIG13    0.0000
     25 C20        24.4910    2.1980   -0.7400 C.2       1    LIG13    0.0000
     26 C21        24.8240    1.9320    0.5980 C.2       1    LIG13    0.0000
     27 N5         23.1420   -1.0220   -1.8350 N.pl3     1    LIG13    0.0000
     28 C22        27.3100   -0.1940    2.2230 C.3       1    LIG13    0.0000
     29 H1         24.0440    0.0330    3.0480 H         1    LIG13    0.0000
     30 H2         25.3150    1.2550    3.0550 H         1    LIG13    0.0000
     31 H3         24.3150   -2.2950    3.6540 H         1    LIG13    0.0000
     32 H4         26.1620   -0.3790    4.7270 H         1    LIG13    0.0000
     33 H5         26.9820   -1.8330    4.1280 H         1    LIG13    0.0000
     34 H6         24.0960   -4.3320    6.2120 H         1    LIG13    0.0000
     35 H7         23.2390   -2.9560    6.9150 H         1    LIG13    0.0000
     36 H8         25.4450   -2.2430    6.3040 H         1    LIG13    0.0000
     37 H9         21.1430   -2.4130    5.8560 H         1    LIG13    0.0000
     38 H10        22.1410   -1.5020    4.7080 H         1    LIG13    0.0000
     39 H11        22.1270   -2.4330    2.2740 H         1    LIG13    0.0000
     40 H12        19.0950   -3.2920    5.0330 H         1    LIG13    0.0000
     41 H13        18.3410   -3.7870    1.0280 H         1    LIG13    0.0000
     42 H14        19.5390   -4.5420   -0.7910 H         1    LIG13    0.0000
     43 H15        20.4330   -4.2550   -3.0230 H         1    LIG13    0.0000
     44 H16        23.9060   -1.2870    0.7270 H         1    LIG13    0.0000
     45 H17        23.6870    1.3920   -2.5080 H         1    LIG13    0.0000
     46 H18        24.6550    3.1250   -1.1320 H         1    LIG13    0.0000
     47 H19        25.2310    2.6710    1.1720 H         1    LIG13    0.0000
     48 H20        23.3900   -0.9730   -2.7710 H         1    LIG13    0.0000
     49 H21        28.0520   -0.9910    2.2870 H         1    LIG13    0.0000
     50 H22        27.2690    0.1510    1.1890 H         1    LIG13    0.0000
     51 H23        27.6190    0.6340    2.8630 H         1    LIG13    0.0000
@<TRIPOS>BOND
     1    1    2 1
     2    1   22 2
     3    1   26 1
     4    2    5 1
     5    2   29 1
     6    2   30 1
     7    3    4 1
     8    3    8 2
     9    3   31 1
    10    4    5 1
    11    4   32 1
    12    4   33 1
    13    5   28 1
    14    6    7 1
    15    6    9 1
    16    7    8 1
    17    7   34 1
    18    7   35 1
    19    8   36 1
    20    9   12 1
    21    9   37 1
    22    9   38 1
    23   10   11 2
    24   10   15 1
    25   10   17 1
    26   11   12 1
    27   11   39 1
    28   12   13 2
    29   13   14 1
    30   13   40 1
    31   14   15 2
    32   15   41 1
    33   16   17 2
    34   16   21 1
    35   17   18 1
    36   18   19 2
    37   18   42 1
    38   19   20 1
    39   19   43 1
    40   20   21 2
    41   21   27 1
    42   22   23 1
    43   22   44 1
    44   23   24 2
    45   23   27 1
    46   24   25 1
    47   24   45 1
    48   25   26 2
    49   25   46 1
    50   26   47 1
    51   27   48 1
    52   28   49 1
    53   28   50 1
    54   28   51 1
@<TRIPOS>SUBSTRUCTURE
     1    LIG13    1   GROUP 1   LIG 1
@<TRIPOS>MOLECULE
50420801
   55    59    1     0     0
SMALL
USER_CHARGES


@<TRIPOS>ATOM
      1 C1         -0.5800    1.5320   -0.6050 C.2       1    LIG14    0.0000
      2 C2         -1.9420    1.8640   -0.4260 C.2       1    LIG14    0.0000
      3 C3         -2.5320    1.8700    0.8530 C.2       1    LIG14    0.0000
      4 C4         -1.7880    1.5410    2.0100 C.2       1    LIG14    0.0000
      5 C5         -0.0260    1.5730   -1.9050 C.2       1    LIG14    0.0000
      6 C6         -0.4140    0.6000   -2.8530 C.2       1    LIG14    0.0000
      7 C7          0.1130    0.6200   -4.1550 C.2       1    LIG14    0.0000
      8 C8          1.0290    1.6170   -4.5270 C.2       1    LIG14    0.0000
      9 C9          1.4160    2.5950   -3.5980 C.2       1    LIG14    0.0000
     10 C10         0.8920    2.5810   -2.2920 C.2       1    LIG14    0.0000
     11 C11        -2.3770    1.5460    3.2970 C.2       1    LIG14    0.0000
     12 N1         -3.6670    1.8620    3.4960 N.am      1    LIG14    0.0000
     13 O1         -1.7200    1.2520    4.3210 O.2       1    LIG14    0.0000
     14 C12         0.1630    1.1870    0.5480 C.2       1    LIG14    0.0000
     15 C13        -0.4310    1.2020    1.8180 C.2       1    LIG14    0.0000
     16 N2          0.4810    0.8420    2.7390 N.pl3     1    LIG14    0.0000
     17 C14         1.4840    0.7740    0.7490 C.2       1    LIG14    0.0000
     18 C15         1.6410    0.5810    2.1200 C.2       1    LIG14    0.0000
     19 C16         2.8610    0.1550    2.6660 C.2       1    LIG14    0.0000
     20 C17         3.9720   -0.0740    1.8150 C.2       1    LIG14    0.0000
     21 C18         3.7810    0.0910    0.4160 C.2       1    LIG14    0.0000
     22 C19         2.5530    0.5180   -0.1250 C.2       1    LIG14    0.0000
     23 F1          1.2740    3.5170   -1.4640 F         1    LIG14    0.0000
     24 C20         5.2300   -0.5360    2.3080 C.2       1    LIG14    0.0000
     25 N3          5.6870   -0.4810    3.6070 N.am      1    LIG14    0.0000
     26 O2          6.0030   -1.0690    1.4770 O.2       1    LIG14    0.0000
     27 C21         6.7320   -1.3570    4.0530 C.3       1    LIG14    0.0000
     28 C22         7.9320   -0.5470    4.5600 C.3       1    LIG14    0.0000
     29 N4          7.4910    0.3350    5.6550 N.3       1    LIG14    0.0000
     30 C23         6.4540    1.2530    5.1480 C.3       1    LIG14    0.0000
     31 C24         5.2530    0.4720    4.5880 C.3       1    LIG14    0.0000
     32 C25         8.6350    1.1070    6.1710 C.3       1    LIG14    0.0000
     33 H1         -2.5180    2.1170   -1.2320 H         1    LIG14    0.0000
     34 H2         -3.5190    2.1220    0.9300 H         1    LIG14    0.0000
     35 H3         -1.0790   -0.1330   -2.5990 H         1    LIG14    0.0000
     36 H4         -0.1710   -0.0890   -4.8310 H         1    LIG14    0.0000
     37 H5          1.4110    1.6310   -5.4730 H         1    LIG14    0.0000
     38 H6          2.0800    3.3200   -3.8760 H         1    LIG14    0.0000
     39 H7         -4.0290    1.8500    4.3950 H         1    LIG14    0.0000
     40 H8         -4.2350    2.0990    2.7480 H         1    LIG14    0.0000
     41 H9          0.3180    0.7730    3.6930 H         1    LIG14    0.0000
     42 H10         2.9150   -0.0210    3.6680 H         1    LIG14    0.0000
     43 H11         4.5510   -0.0930   -0.2300 H         1    LIG14    0.0000
     44 H12         2.4520    0.6240   -1.1330 H         1    LIG14    0.0000
     45 H13         6.3500   -1.9610    4.8780 H         1    LIG14    0.0000
     46 H14         7.0780   -2.0390    3.2740 H         1    LIG14    0.0000
     47 H15         8.3480    0.0390    3.7370 H         1    LIG14    0.0000
     48 H16         8.6930   -1.2370    4.9270 H         1    LIG14    0.0000
     49 H17         6.8670    1.8820    4.3570 H         1    LIG14    0.0000
     50 H18         6.1060    1.8920    5.9600 H         1    LIG14    0.0000
     51 H19         4.5800    1.2230    4.1780 H         1    LIG14    0.0000
     52 H20         4.7540   -0.0520    5.4050 H         1    LIG14    0.0000
     53 H21         8.3060    1.7490    6.9880 H         1    LIG14    0.0000
     54 H22         9.3970    0.4240    6.5490 H         1    LIG14    0.0000
     55 H23         9.0680    1.7240    5.3820 H         1    LIG14    0.0000
@<TRIPOS>BOND
     1    1    2 2
     2    1    5 1
     3    1   14 1
     4    2    3 1
     5    2   33 1
     6    3    4 2
     7    3   34 1
     8    4   11 1
     9    4   15 1
    10    5    6 2
    11    5   10 1
    12    6    7 1
    13    6   35 1
    14    7    8 2
    15    7   36 1
    16    8    9 1
    17    8   37 1
    18    9   10 2
    19    9   38 1
    20   10   23 1
    21   11   12 1
    22   11   13 2
    23   12   39 1
    24   12   40 1
    25   14   15 2
    26   14   17 1
    27   15   16 1
    28   16   18 1
    29   16   41 1
    30   17   18 2
    31   17   22 1
    32   18   19 1
    33   19   20 2
    34   19   42 1
    35   20   21 1
    36   20   24 1
    37   21   22 2
    38   21   43 1
    39   22   44 1
    40   24   25 1
    41   24   26 2
    42   25   27 1
    43   25   31 1
    44   27   28 1
    45   27   45 1
    46   27   46 1
    47   28   29 1
    48   28   47 1
    49   28   48 1
    50   29   30 1
    51   29   32 1
    52   30   31 1
    53   30   49 1
    54   30   50 1
    55   31   51 1
    56   31   52 1
    57   32   53 1
    58   32   54 1
    59   32   55 1
@<TRIPOS>SUBSTRUCTURE
     1    LIG14    1   GROUP 1   LIG 1
@<TRIPOS>MOLECULE
50814291
   63    68    1     0     0
SMALL
USER_CHARGES


@<TRIPOS>ATOM
      1 C1          2.6380   -2.2700   -2.8350 C.2       1    LIG15    0.0000
      2 C2          3.0200   -3.5020   -2.2750 C.2       1    LIG15    0.0000
      3 C3          3.6250   -3.8200   -1.0220 C.2       1    LIG15    0.0000
      4 C4          3.0030   -0.9500   -2.4470 C.2       1    LIG15    0.0000
      5 C5          2.6190   -4.4790   -3.2020 C.2       1    LIG15    0.0000
      6 C6          1.9510   -2.5860   -4.0200 C.2       1    LIG15    0.0000
      7 N1          1.9690   -3.9030   -4.2080 N.am      1    LIG15    0.0000
      8 C7          4.3660   -4.9780   -0.7630 C.2       1    LIG15    0.0000
      9 C8          4.1750   -0.6050   -1.7680 C.2       1    LIG15    0.0000
     10 N2          4.2800    0.7300   -1.6190 N.pl3     1    LIG15    0.0000
     11 N3          4.8040   -5.0100    0.5090 N.pl3     1    LIG15    0.0000
     12 C9          3.5790   -3.1620    0.2130 C.2       1    LIG15    0.0000
     13 C10         2.3740    0.2750   -2.6940 C.2       1    LIG15    0.0000
     14 C11         4.3320   -3.9100    1.1250 C.2       1    LIG15    0.0000
     15 C12         3.1880    1.2860   -2.1730 C.2       1    LIG15    0.0000
     16 O1          2.7590   -5.7180   -3.1100 O.2       1    LIG15    0.0000
     17 O2          1.5110   -1.8030   -4.8880 O.2       1    LIG15    0.0000
     18 O3          7.0580   -0.1180   -1.7780 O.3       1    LIG15    0.0000
     19 O4          8.2640   -2.4600   -1.0600 O.3       1    LIG15    0.0000
     20 O5          7.9390   -5.5400    0.9050 O.3       1    LIG15    0.0000
     21 C13         5.5370   -6.0940    1.0870 C.3       1    LIG15    0.0000
     22 C14         5.3620    1.3970   -0.9660 C.3       1    LIG15    0.0000
     23 C15         1.1290    0.5970   -3.2720 C.2       1    LIG15    0.0000
     24 C16         2.8640   -2.0300    0.6550 C.2       1    LIG15    0.0000
     25 C17         4.4650   -3.5050    2.4650 C.2       1    LIG15    0.0000
     26 C18         2.8120    2.6400   -2.2620 C.2       1    LIG15    0.0000
     27 C19         6.6800    1.2530   -1.7450 C.3       1    LIG15    0.0000
     28 C20         6.8900   -6.3690    0.4030 C.3       1    LIG15    0.0000
     29 C21         8.2880   -0.4660   -2.4030 C.3       1    LIG15    0.0000
     30 C22         8.1300   -3.8640   -0.8730 C.3       1    LIG15    0.0000
     31 C23         7.9600   -4.1410    0.6250 C.3       1    LIG15    0.0000
     32 C24         8.3990   -1.9930   -2.4000 C.3       1    LIG15    0.0000
     33 C25         0.7450    1.9490   -3.3640 C.2       1    LIG15    0.0000
     34 C26         2.9940   -1.6130    1.9930 C.2       1    LIG15    0.0000
     35 C27         1.5850    2.9650   -2.8680 C.2       1    LIG15    0.0000
     36 C28         3.7990   -2.3400    2.8910 C.2       1    LIG15    0.0000
     37 H1          1.5920   -4.3660   -4.9710 H         1    LIG15    0.0000
     38 H2          4.5670   -5.7060   -1.4500 H         1    LIG15    0.0000
     39 H3          4.8810   -1.2720   -1.4530 H         1    LIG15    0.0000
     40 H4          5.7220   -5.9260    2.1480 H         1    LIG15    0.0000
     41 H5          4.9270   -6.9940    0.9960 H         1    LIG15    0.0000
     42 H6          5.4920    0.9780    0.0330 H         1    LIG15    0.0000
     43 H7          5.1540    2.4620   -0.8590 H         1    LIG15    0.0000
     44 H8          0.4960   -0.1280   -3.6030 H         1    LIG15    0.0000
     45 H9          2.2430   -1.5200    0.0290 H         1    LIG15    0.0000
     46 H10         5.0230   -4.0470    3.1240 H         1    LIG15    0.0000
     47 H11         3.4110    3.3760   -1.8890 H         1    LIG15    0.0000
     48 H12         6.5470    1.6270   -2.7610 H         1    LIG15    0.0000
     49 H13         7.4560    1.8330   -1.2440 H         1    LIG15    0.0000
     50 H14         7.1660   -7.4010    0.6240 H         1    LIG15    0.0000
     51 H15         6.8050   -6.2710   -0.6790 H         1    LIG15    0.0000
     52 H16         8.3040   -0.1010   -3.4310 H         1    LIG15    0.0000
     53 H17         9.1210   -0.0340   -1.8470 H         1    LIG15    0.0000
     54 H18         9.0220   -4.3740   -1.2400 H         1    LIG15    0.0000
     55 H19         7.2540   -4.2200   -1.4160 H         1    LIG15    0.0000
     56 H20         8.8040   -3.7020    1.1560 H         1    LIG15    0.0000
     57 H21         7.0470   -3.6700    0.9820 H         1    LIG15    0.0000
     58 H22         9.3660   -2.2950   -2.8040 H         1    LIG15    0.0000
     59 H23         7.6010   -2.4060   -3.0180 H         1    LIG15    0.0000
     60 H24        -0.1520    2.1930   -3.7860 H         1    LIG15    0.0000
     61 H25         2.4920   -0.7860    2.3170 H         1    LIG15    0.0000
     62 H26         1.2960    3.9410   -2.9370 H         1    LIG15    0.0000
     63 H27         3.8850   -2.0320    3.8600 H         1    LIG15    0.0000
@<TRIPOS>BOND
     1    1    2 2
     2    1    4 1
     3    1    6 1
     4    2    3 1
     5    2    5 1
     6    3    8 2
     7    3   12 1
     8    4    9 2
     9    4   13 1
    10    5    7 1
    11    5   16 2
    12    6    7 1
    13    6   17 2
    14    7   37 1
    15    8   11 1
    16    8   38 1
    17    9   10 1
    18    9   39 1
    19   10   15 1
    20   10   22 1
    21   11   14 1
    22   11   21 1
    23   12   14 1
    24   12   24 2
    25   13   15 1
    26   13   23 2
    27   14   25 2
    28   15   26 2
    29   18   27 1
    30   18   29 1
    31   19   30 1
    32   19   32 1
    33   20   28 1
    34   20   31 1
    35   21   28 1
    36   21   40 1
    37   21   41 1
    38   22   27 1
    39   22   42 1
    40   22   43 1
    41   23   33 1
    42   23   44 1
    43   24   34 1
    44   24   45 1
    45   25   36 1
    46   25   46 1
    47   26   35 1
    48   26   47 1
    49   27   48 1
    50   27   49 1
    51   28   50 1
    52   28   51 1
    53   29   32 1
    54   29   52 1
    55   29   53 1
    56   30   31 1
    57   30   54 1
    58   30   55 1
    59   31   56 1
    60   31   57 1
    61   32   58 1
    62   32   59 1
    63   33   35 2
    64   33   60 1
    65   34   36 2
    66   34   61 1
    67   35   62 1
    68   36   63 1
@<TRIPOS>SUBSTRUCTURE
     1    LIG15    1   GROUP 1   LIG 1
@<TRIPOS>MOLECULE
50384164
   54    57    1     0     0
SMALL
USER_CHARGES


@<TRIPOS>ATOM
      1 C1         12.2320   -4.0840    0.8720 C.2       1    LIG16    0.0000
      2 C2         12.3040   -5.4900    0.8430 C.2       1    LIG16    0.0000
      3 C3         13.5910   -6.0870    0.7040 C.2       1    LIG16    0.0000
      4 N1         14.6470   -5.2360    0.6140 N.2       1    LIG16    0.0000
      5 C4         14.5630   -3.8900    0.6470 C.2       1    LIG16    0.0000
      6 N2         13.3450   -3.3260    0.7740 N.2       1    LIG16    0.0000
      7 C5         13.9200   -7.4830    0.6460 C.2       1    LIG16    0.0000
      8 N3         13.7580   -9.7410    0.6280 N.pl3     1    LIG16    0.0000
      9 C6         13.0670   -8.5960    0.7230 C.2       1    LIG16    0.0000
     10 C7         15.0500   -9.4460    0.4900 C.2       1    LIG16    0.0000
     11 C8         15.1970   -8.0570    0.4970 C.2       1    LIG16    0.0000
     12 C9         16.4890   -7.5030    0.3630 C.2       1    LIG16    0.0000
     13 C10        17.5990   -8.3610    0.2260 C.2       1    LIG16    0.0000
     14 C11        17.4270   -9.7600    0.2210 C.2       1    LIG16    0.0000
     15 C12        16.1420  -10.3170    0.3550 C.2       1    LIG16    0.0000
     16 Cl1        10.8130   -6.2880    0.9760 Cl        1    LIG16    0.0000
     17 N4         15.6920   -3.1630    0.5450 N.pl3     1    LIG16    0.0000
     18 C13        15.7250   -1.7430    0.5640 C.3       1    LIG16    0.0000
     19 C14        15.3760   -1.1860    1.9580 C.3       1    LIG16    0.0000
     20 C15        15.5380    0.3430    1.9760 C.3       1    LIG16    0.0000
     21 N5         16.8640    0.6930    1.5650 N.am      1    LIG16    0.0000
     22 C16        17.2360    0.2520    0.2550 C.3       1    LIG16    0.0000
     23 C17        17.1410   -1.2800    0.1830 C.3       1    LIG16    0.0000
     24 C18        17.7060    1.3970    2.3840 C.2       1    LIG16    0.0000
     25 O1         17.3010    1.7650    3.5100 O.2       1    LIG16    0.0000
     26 C19        19.0800    1.7520    1.9790 C.3       1    LIG16    0.0000
     27 N6         19.8430    2.4880    3.0160 N.3       1    LIG16    1.0000
     28 C20        20.3030    1.5800    4.0870 C.3       1    LIG16    0.0000
     29 C21        21.0180    3.1370    2.4070 C.3       1    LIG16    0.0000
     30 H1         11.3310   -3.6100    0.9680 H         1    LIG16    0.0000
     31 H2         13.3800  -10.6340    0.6560 H         1    LIG16    0.0000
     32 H3         12.0590   -8.5810    0.8370 H         1    LIG16    0.0000
     33 H4         16.6400   -6.4960    0.3630 H         1    LIG16    0.0000
     34 H5         18.5350   -7.9660    0.1280 H         1    LIG16    0.0000
     35 H6         18.2370  -10.3710    0.1210 H         1    LIG16    0.0000
     36 H7         16.0080  -11.3280    0.3520 H         1    LIG16    0.0000
     37 H8         16.5270   -3.6410    0.4280 H         1    LIG16    0.0000
     38 H9         15.0210   -1.3480   -0.1710 H         1    LIG16    0.0000
     39 H10        16.0390   -1.6250    2.7050 H         1    LIG16    0.0000
     40 H11        14.3450   -1.4320    2.2120 H         1    LIG16    0.0000
     41 H12        14.8230    0.7830    1.2800 H         1    LIG16    0.0000
     42 H13        15.3000    0.7000    2.9790 H         1    LIG16    0.0000
     43 H14        16.5470    0.6840   -0.4730 H         1    LIG16    0.0000
     44 H15        18.2470    0.5440   -0.0260 H         1    LIG16    0.0000
     45 H16        17.8680   -1.7160    0.8700 H         1    LIG16    0.0000
     46 H17        17.3690   -1.6060   -0.8320 H         1    LIG16    0.0000
     47 H18        19.6200    0.8420    1.7130 H         1    LIG16    0.0000
     48 H19        18.9980    2.3800    1.0900 H         1    LIG16    0.0000
     49 H20        20.8520    2.1500    4.8380 H         1    LIG16    0.0000
     50 H21        19.4520    1.1040    4.5730 H         1    LIG16    0.0000
     51 H22        20.9570    0.8080    3.6780 H         1    LIG16    0.0000
     52 H23        21.5740    3.6850    3.1690 H         1    LIG16    0.0000
     53 H24        21.6740    2.3910    1.9530 H         1    LIG16    0.0000
     54 H25        20.6950    3.8420    1.6410 H         1    LIG16    0.0000
@<TRIPOS>BOND
     1    1    2 1
     2    1    6 2
     3    1   30 1
     4    2    3 2
     5    2   16 1
     6    3    4 1
     7    3    7 1
     8    4    5 2
     9    5    6 1
    10    5   17 1
    11    7    9 2
    12    7   11 1
    13    8    9 1
    14    8   10 1
    15    8   31 1
    16    9   32 1
    17   10   11 1
    18   10   15 2
    19   11   12 2
    20   12   13 1
    21   12   33 1
    22   13   14 2
    23   13   34 1
    24   14   15 1
    25   14   35 1
    26   15   36 1
    27   17   18 1
    28   17   37 1
    29   18   19 1
    30   18   23 1
    31   18   38 1
    32   19   20 1
    33   19   39 1
    34   19   40 1
    35   20   21 1
    36   20   41 1
    37   20   42 1
    38   21   22 1
    39   21   24 1
    40   22   23 1
    41   22   43 1
    42   22   44 1
    43   23   45 1
    44   23   46 1
    45   24   25 2
    46   24   26 1
    47   26   27 1
    48   26   47 1
    49   26   48 1
    50   27   28 1
    51   27   29 1
    52   28   49 1
    53   28   50 1
    54   28   51 1
    55   29   52 1
    56   29   53 1
    57   29   54 1
@<TRIPOS>SUBSTRUCTURE
     1    LIG16    1   GROUP 1   LIG 1
@<TRIPOS>MOLECULE
50457180
   44    48    1     0     0
SMALL
USER_CHARGES


@<TRIPOS>ATOM
      1 C1          5.5130  -12.1850    0.5180 C.2       1    LIG17    0.0000
      2 C2          5.5110  -13.5070    0.0260 C.2       1    LIG17    0.0000
      3 C3          6.4260  -14.4530    0.5250 C.2       1    LIG17    0.0000
      4 C4          6.4440  -11.7980    1.5030 C.2       1    LIG17    0.0000
      5 C5          7.4040  -12.7240    1.9550 C.2       1    LIG17    0.0000
      6 C6          7.3550  -14.0440    1.4960 C.2       1    LIG17    0.0000
      7 N1          8.2820  -14.7690    2.1410 N.pl3     1    LIG17    0.0000
      8 C7          8.9230  -13.9500    2.9940 C.2       1    LIG17    0.0000
      9 C8          8.4440  -12.6380    2.8920 C.2       1    LIG17    0.0000
     10 C9          8.5420  -16.1560    1.9670 C.3       1    LIG17    0.0000
     11 C10         8.9810  -11.5290    3.6130 C.2       1    LIG17    0.0000
     12 C11         8.9560  -10.1560    3.3310 C.2       1    LIG17    0.0000
     13 C12         9.6100   -9.5080    4.3830 C.2       1    LIG17    0.0000
     14 N2         10.0470  -10.4190    5.2480 N.am      1    LIG17    0.0000
     15 C13         9.7130  -11.6340    4.8100 C.2       1    LIG17    0.0000
     16 O1          9.8110   -8.2790    4.4940 O.2       1    LIG17    0.0000
     17 O2          9.9820  -12.6790    5.4420 O.2       1    LIG17    0.0000
     18 C14         8.5280   -9.4800    2.1720 C.2       1    LIG17    0.0000
     19 C15         7.6490   -8.3970    2.1280 C.2       1    LIG17    0.0000
     20 O3          7.4410   -8.0050    0.8470 O.3       1    LIG17    0.0000
     21 C16         8.8870   -9.7200    0.8490 C.2       1    LIG17    0.0000
     22 C17         8.1910   -8.8070    0.0560 C.2       1    LIG17    0.0000
     23 C18         8.3210   -8.8100   -1.3490 C.2       1    LIG17    0.0000
     24 C19         9.1930   -9.7570   -1.9250 C.2       1    LIG17    0.0000
     25 C20         9.9060  -10.6730   -1.1240 C.2       1    LIG17    0.0000
     26 C21         9.7590  -10.6630    0.2760 C.2       1    LIG17    0.0000
     27 Br1         4.2810  -10.9450   -0.1250 Br        1    LIG17    0.0000
     28 O4          7.6630   -7.9660   -2.1980 O.3       1    LIG17    0.0000
     29 C22         6.6770   -7.0310   -1.7510 C.3       1    LIG17    0.0000
     30 H1          4.8350  -13.7930   -0.6850 H         1    LIG17    0.0000
     31 H2          6.4100  -15.4170    0.1910 H         1    LIG17    0.0000
     32 H3          6.4000  -10.8620    1.8960 H         1    LIG17    0.0000
     33 H4          9.6910  -14.2480    3.5970 H         1    LIG17    0.0000
     34 H5          9.3550  -16.4870    2.6160 H         1    LIG17    0.0000
     35 H6          7.6460  -16.7290    2.2080 H         1    LIG17    0.0000
     36 H7          8.8220  -16.3490    0.9300 H         1    LIG17    0.0000
     37 H8         10.5420  -10.2320    6.0600 H         1    LIG17    0.0000
     38 H9          7.2090   -7.9670    2.9430 H         1    LIG17    0.0000
     39 H10         9.3100   -9.7820   -2.9380 H         1    LIG17    0.0000
     40 H11        10.5320  -11.3490   -1.5620 H         1    LIG17    0.0000
     41 H12        10.2720  -11.3280    0.8550 H         1    LIG17    0.0000
     42 H13         6.2780   -6.5020   -2.6160 H         1    LIG17    0.0000
     43 H14         5.8600   -7.5530   -1.2500 H         1    LIG17    0.0000
     44 H15         7.1240   -6.3050   -1.0710 H         1    LIG17    0.0000
@<TRIPOS>BOND
     1    1    2 2
     2    1    4 1
     3    1   27 1
     4    2    3 1
     5    2   30 1
     6    3    6 2
     7    3   31 1
     8    4    5 2
     9    4   32 1
    10    5    6 1
    11    5    9 1
    12    6    7 1
    13    7    8 1
    14    7   10 1
    15    8    9 2
    16    8   33 1
    17    9   11 1
    18   10   34 1
    19   10   35 1
    20   10   36 1
    21   11   12 2
    22   11   15 1
    23   12   13 1
    24   12   18 1
    25   13   14 1
    26   13   16 2
    27   14   15 1
    28   14   37 1
    29   15   17 2
    30   18   19 2
    31   18   21 1
    32   19   20 1
    33   19   38 1
    34   20   22 1
    35   21   22 1
    36   21   26 2
    37   22   23 2
    38   23   24 1
    39   23   28 1
    40   24   25 2
    41   24   39 1
    42   25   26 1
    43   25   40 1
    44   26   41 1
    45   28   29 1
    46   29   42 1
    47   29   43 1
    48   29   44 1
@<TRIPOS>SUBSTRUCTURE
     1    LIG17    1   GROUP 1   LIG 1
@<TRIPOS>MOLECULE
50457182
   40    44    1     0     0
SMALL
USER_CHARGES


@<TRIPOS>ATOM
      1 C1         -4.1540    0.6130    1.0340 C.2       1    LIG18    0.0000
      2 C2         -4.1490   -0.6890    0.4890 C.2       1    LIG18    0.0000
      3 C3         -3.0520   -1.5440    0.6970 C.2       1    LIG18    0.0000
      4 C4         -3.0620    1.0630    1.8070 C.2       1    LIG18    0.0000
      5 C5         -1.9780    0.1930    2.0470 C.2       1    LIG18    0.0000
      6 C6         -1.9740   -1.0800    1.4700 C.2       1    LIG18    0.0000
      7 N1         -0.8190   -1.6960    1.7700 N.pl3     1    LIG18    0.0000
      8 C7         -0.0870   -0.8520    2.5190 C.2       1    LIG18    0.0000
      9 C8         -0.7700    0.3500    2.7410 C.2       1    LIG18    0.0000
     10 C9         -0.4290   -3.0040    1.3710 C.3       1    LIG18    0.0000
     11 C10        -0.2910    1.4380    3.5300 C.2       1    LIG18    0.0000
     12 C11         1.0340    1.7270    3.8890 C.2       1    LIG18    0.0000
     13 C12         1.0070    2.8630    4.6980 C.2       1    LIG18    0.0000
     14 N2         -0.2560    3.2570    4.8430 N.am      1    LIG18    0.0000
     15 C13        -1.0560    2.4340    4.1610 C.2       1    LIG18    0.0000
     16 O1          1.9920    3.4360    5.2140 O.2       1    LIG18    0.0000
     17 O2         -2.2990    2.4870    4.2710 O.2       1    LIG18    0.0000
     18 C14         2.2250    1.0960    3.4810 C.2       1    LIG18    0.0000
     19 C15         3.1920    0.5350    4.3160 C.2       1    LIG18    0.0000
     20 O3          4.2150    0.0210    3.5880 O.3       1    LIG18    0.0000
     21 C16         2.7040    0.9220    2.1860 C.2       1    LIG18    0.0000
     22 C17         3.9230    0.2530    2.2890 C.2       1    LIG18    0.0000
     23 C18         4.6620   -0.0820    1.1430 C.2       1    LIG18    0.0000
     24 C19         4.1470    0.2750   -0.1190 C.2       1    LIG18    0.0000
     25 C20         2.9130    0.9550   -0.2240 C.2       1    LIG18    0.0000
     26 C21         2.1800    1.2880    0.9330 C.2       1    LIG18    0.0000
     27 Cl1        -5.4660    1.6410    0.7500 Cl        1    LIG18    0.0000
     28 F1          2.4490    1.2780   -1.3980 F         1    LIG18    0.0000
     29 H1         -4.9370   -1.0170   -0.0730 H         1    LIG18    0.0000
     30 H2         -3.0370   -2.4780    0.2880 H         1    LIG18    0.0000
     31 H3         -3.0550    2.0170    2.1620 H         1    LIG18    0.0000
     32 H4          0.8260   -1.0920    2.9040 H         1    LIG18    0.0000
     33 H5          0.5600   -3.2530    1.7590 H         1    LIG18    0.0000
     34 H6         -1.1470   -3.7320    1.7500 H         1    LIG18    0.0000
     35 H7         -0.4030   -3.0620    0.2820 H         1    LIG18    0.0000
     36 H8         -0.5510    4.0020    5.3870 H         1    LIG18    0.0000
     37 H9          3.1390    0.5100    5.3350 H         1    LIG18    0.0000
     38 H10         5.5530   -0.5730    1.2240 H         1    LIG18    0.0000
     39 H11         4.6720    0.0380   -0.9620 H         1    LIG18    0.0000
     40 H12         1.2870    1.7790    0.8620 H         1    LIG18    0.0000
@<TRIPOS>BOND
     1    1    2 2
     2    1    4 1
     3    1   27 1
     4    2    3 1
     5    2   29 1
     6    3    6 2
     7    3   30 1
     8    4    5 2
     9    4   31 1
    10    5    6 1
    11    5    9 1
    12    6    7 1
    13    7    8 1
    14    7   10 1
    15    8    9 2
    16    8   32 1
    17    9   11 1
    18   10   33 1
    19   10   34 1
    20   10   35 1
    21   11   12 2
    22   11   15 1
    23   12   13 1
    24   12   18 1
    25   13   14 1
    26   13   16 2
    27   14   15 1
    28   14   36 1
    29   15   17 2
    30   18   19 2
    31   18   21 1
    32   19   20 1
    33   19   37 1
    34   20   22 1
    35   21   22 1
    36   21   26 2
    37   22   23 2
    38   23   24 1
    39   23   38 1
    40   24   25 2
    41   24   39 1
    42   25   26 1
    43   25   28 1
    44   26   40 1
@<TRIPOS>SUBSTRUCTURE
     1    LIG18    1   GROUP 1   LIG 1
@<TRIPOS>MOLECULE
50443082
   57    63    1     0     0
SMALL
USER_CHARGES


@<TRIPOS>ATOM
      1 C1         -3.0100  -16.5510    1.9540 C.2       1    LIG19    0.0000
      2 C2         -4.1180  -17.4120    1.8310 C.2       1    LIG19    0.0000
      3 C3         -4.2840  -18.1910    0.6700 C.2       1    LIG19    0.0000
      4 C4         -2.0720  -16.4480    0.9090 C.2       1    LIG19    0.0000
      5 C5         -2.2660  -17.1920   -0.2730 C.2       1    LIG19    0.0000
      6 C6         -3.3350  -18.0770   -0.3600 C.2       1    LIG19    0.0000
      7 C7         -3.2720  -18.8420   -1.5920 C.3       1    LIG19    0.0000
      8 C8         -1.9170  -18.3780   -2.2110 C.3       1    LIG19    0.0000
      9 N1         -1.5050  -17.2680   -1.3950 N.2       1    LIG19    0.0000
     10 N2          0.8730  -17.7090   -3.2360 N.pl3     1    LIG19    0.0000
     11 C9          2.3590  -19.2080   -4.0390 C.2       1    LIG19    0.0000
     12 C10         2.0480  -17.8640   -3.8980 C.2       1    LIG19    0.0000
     13 C11         1.3130  -19.8950   -3.4570 C.2       1    LIG19    0.0000
     14 C12         0.3810  -18.9550   -3.0070 C.2       1    LIG19    0.0000
     15 C13        -0.8450  -19.3850   -2.4420 C.2       1    LIG19    0.0000
     16 C14        -1.0260  -20.7820   -2.2660 C.2       1    LIG19    0.0000
     17 C15        -0.0500  -21.7110   -2.6770 C.2       1    LIG19    0.0000
     18 C16         1.1300  -21.2750   -3.3000 C.2       1    LIG19    0.0000
     19 C17        -0.6760  -16.2980   -1.8980 C.2       1    LIG19    0.0000
     20 C18         0.3780  -16.5020   -2.7930 C.2       1    LIG19    0.0000
     21 C19         0.9160  -15.2250   -3.0350 C.2       1    LIG19    0.0000
     22 N3          0.2460  -14.2990   -2.3330 N.am      1    LIG19    0.0000
     23 C20        -0.7210  -14.9200   -1.6430 C.2       1    LIG19    0.0000
     24 O1         -1.5640  -14.3200   -0.9400 O.2       1    LIG19    0.0000
     25 O2          1.8850  -14.9530   -3.7780 O.2       1    LIG19    0.0000
     26 C21         0.5250  -12.8980   -2.3130 C.3       1    LIG19    0.0000
     27 C22         1.8510  -12.5930   -1.5910 C.3       1    LIG19    0.0000
     28 C23         1.8710  -13.1770   -0.1700 C.3       1    LIG19    0.0000
     29 S1          0.5010  -12.5140    0.7970 S.3       1    LIG19    0.0000
     30 C24         0.4010  -13.5830    2.1560 C.2       1    LIG19    0.0000
     31 N4         -0.4600  -13.4310    3.1600 N.pl3     1    LIG19    0.0000
     32 C25        -0.3140  -14.4500    4.1200 C.3       1    LIG19    0.0000
     33 C26         0.8020  -15.3080    3.4990 C.3       1    LIG19    0.0000
     34 N5          1.1350  -14.6460    2.3320 N.2       1    LIG19    0.0000
     35 H1         -2.8850  -16.0030    2.8050 H         1    LIG19    0.0000
     36 H2         -4.7940  -17.4840    2.5920 H         1    LIG19    0.0000
     37 H3         -5.0680  -18.8380    0.5860 H         1    LIG19    0.0000
     38 H4         -1.2620  -15.8370    1.0140 H         1    LIG19    0.0000
     39 H5         -4.1030  -18.5630   -2.2410 H         1    LIG19    0.0000
     40 H6         -3.3320  -19.9000   -1.3610 H         1    LIG19    0.0000
     41 H7         -2.1770  -17.9860   -3.1980 H         1    LIG19    0.0000
     42 H8          3.1970  -19.6030   -4.4680 H         1    LIG19    0.0000
     43 H9          2.6670  -17.1150   -4.2070 H         1    LIG19    0.0000
     44 H10        -1.8800  -21.1550   -1.8640 H         1    LIG19    0.0000
     45 H11        -0.2130  -22.7100   -2.5440 H         1    LIG19    0.0000
     46 H12         1.8290  -21.9430   -3.6240 H         1    LIG19    0.0000
     47 H13         0.5830  -12.5270   -3.3370 H         1    LIG19    0.0000
     48 H14        -0.2760  -12.3570   -1.8050 H         1    LIG19    0.0000
     49 H15         2.6800  -13.0140   -2.1610 H         1    LIG19    0.0000
     50 H16         1.9810  -11.5120   -1.5330 H         1    LIG19    0.0000
     51 H17         1.7900  -14.2630   -0.2260 H         1    LIG19    0.0000
     52 H18         2.8110  -12.9200    0.3180 H         1    LIG19    0.0000
     53 H19        -1.1010  -12.7060    3.2230 H         1    LIG19    0.0000
     54 H20        -0.0030  -14.0340    5.0790 H         1    LIG19    0.0000
     55 H21        -1.2370  -15.0200    4.2270 H         1    LIG19    0.0000
     56 H22         1.6630  -15.3640    4.1650 H         1    LIG19    0.0000
     57 H23         0.4330  -16.3090    3.2720 H         1    LIG19    0.0000
@<TRIPOS>BOND
     1    1    2 2
     2    1    4 1
     3    1   35 1
     4    2    3 1
     5    2   36 1
     6    3    6 2
     7    3   37 1
     8    4    5 2
     9    4   38 1
    10    5    6 1
    11    5    9 1
    12    6    7 1
    13    7    8 1
    14    7   39 1
    15    7   40 1
    16    8    9 1
    17    8   15 1
    18    8   41 1
    19    9   19 1
    20   10   12 1
    21   10   14 1
    22   10   20 1
    23   11   12 2
    24   11   13 1
    25   11   42 1
    26   12   43 1
    27   13   14 1
    28   13   18 2
    29   14   15 2
    30   15   16 1
    31   16   17 2
    32   16   44 1
    33   17   18 1
    34   17   45 1
    35   18   46 1
    36   19   20 2
    37   19   23 1
    38   20   21 1
    39   21   22 1
    40   21   25 2
    41   22   23 1
    42   22   26 1
    43   23   24 2
    44   26   27 1
    45   26   47 1
    46   26   48 1
    47   27   28 1
    48   27   49 1
    49   27   50 1
    50   28   29 1
    51   28   51 1
    52   28   52 1
    53   29   30 1
    54   30   31 1
    55   30   34 2
    56   31   32 1
    57   31   53 1
    58   32   33 1
    59   32   54 1
    60   32   55 1
    61   33   34 1
    62   33   56 1
    63   33   57 1
@<TRIPOS>SUBSTRUCTURE
     1    LIG19    1   GROUP 1   LIG 1
@<TRIPOS>MOLECULE
50907416
   31    33    1     0     0
SMALL
USER_CHARGES


@<TRIPOS>ATOM
      1 C1         10.9950   -6.6560   -0.3480 C.2       1    LIG20    0.0000
      2 C2         10.1170   -7.0390    0.6760 C.2       1    LIG20    0.0000
      3 C3         12.0020   -5.6660   -0.1120 C.2       1    LIG20    0.0000
      4 C4         12.1570   -5.1250    1.2100 C.2       1    LIG20    0.0000
      5 C5         13.8410   -4.2200   -0.9110 C.2       1    LIG20    0.0000
      6 C6         12.8400   -5.1870   -1.1600 C.2       1    LIG20    0.0000
      7 C7         14.0680   -3.7590    0.4100 C.2       1    LIG20    0.0000
      8 C8         13.2470   -4.2350    1.4810 C.2       1    LIG20    0.0000
      9 C9         13.5920   -3.8130    2.7960 C.2       1    LIG20    0.0000
     10 C10        14.6330   -2.9110    3.0510 C.2       1    LIG20    0.0000
     11 C11        15.3880   -2.4090    1.9920 C.2       1    LIG20    0.0000
     12 C12        15.1120   -2.8360    0.6900 C.2       1    LIG20    0.0000
     13 C13        11.1890   -5.4910    2.1950 C.2       1    LIG20    0.0000
     14 C14        10.2010   -6.4520    1.9350 C.2       1    LIG20    0.0000
     15 O1          9.3170   -6.8460    2.8830 O.3       1    LIG20    0.0000
     16 O2         11.0940   -4.8970    3.4080 O.3       1    LIG20    0.0000
     17 N1         12.6760   -5.6090   -2.4420 N.pl3     1    LIG20    0.0000
     18 O3         13.4010   -6.4470   -2.9070 O.2       1    LIG20    0.0000
     19 O4         11.8470   -5.0930   -3.1460 O.3       1    LIG20    0.0000
     20 C15        10.8010   -7.3260   -1.5310 C.2       1    LIG20    0.0000
     21 O5         11.5270   -8.2570   -1.8390 O.2       1    LIG20    0.0000
     22 O6          9.7930   -7.0120   -2.3220 O.3       1    LIG20    0.0000
     23 Cl1        14.7630   -3.6450   -2.2340 Cl        1    LIG20    0.0000
     24 H1          9.3990   -7.7480    0.5070 H         1    LIG20    0.0000
     25 H2         13.1190   -4.1740    3.6160 H         1    LIG20    0.0000
     26 H3         14.8440   -2.6290    4.0090 H         1    LIG20    0.0000
     27 H4         16.1480   -1.7520    2.1690 H         1    LIG20    0.0000
     28 H5         15.7050   -2.4630   -0.0510 H         1    LIG20    0.0000
     29 H6          9.5220   -6.5600    3.7950 H         1    LIG20    0.0000
     30 H7         10.2670   -5.0700    3.9000 H         1    LIG20    0.0000
     31 H8          9.7580   -7.5460   -3.1420 H         1    LIG20    0.0000
@<TRIPOS>BOND
     1    1    2 1
     2    1    3 2
     3    1   20 1
     4    2   14 2
     5    2   24 1
     6    3    4 1
     7    3    6 1
     8    4    8 1
     9    4   13 2
    10    5    6 2
    11    5    7 1
    12    5   23 1
    13    6   17 1
    14    7    8 1
    15    7   12 2
    16    8    9 2
    17    9   10 1
    18    9   25 1
    19   10   11 2
    20   10   26 1
    21   11   12 1
    22   11   27 1
    23   12   28 1
    24   13   14 1
    25   13   16 1
    26   14   15 1
    27   15   29 1
    28   16   30 1
    29   17   18 2
    30   17   19 1
    31   20   21 2
    32   20   22 1
    33   22   31 1
@<TRIPOS>SUBSTRUCTURE
     1    LIG20    1   GROUP 1   LIG 1
@<TRIPOS>MOLECULE
1028522
   62    66    1     0     0
SMALL
USER_CHARGES


@<TRIPOS>ATOM
      1 N1         -2.2010    0.9650    0.9540 N.2       1    LIG21    0.0000
      2 C1         -2.2280   -0.3820    1.1040 C.2       1    LIG21    0.0000
      3 C2         -1.3180   -1.1770    0.3800 C.2       1    LIG21    0.0000
      4 C3         -0.3800   -0.5320   -0.4460 C.2       1    LIG21    0.0000
      5 C4         -0.3780    0.8670   -0.5670 C.2       1    LIG21    0.0000
      6 C5         -1.3220    1.6210    0.1510 C.2       1    LIG21    0.0000
      7 C6         -3.2150   -0.9780    2.0160 C.3       1    LIG21    0.0000
      8 C7         -2.9380   -2.4640    2.3110 C.3       1    LIG21    0.0000
      9 N2         -2.6060   -3.1740    1.0600 N.3       1    LIG21    0.0000
     10 C8         -1.3370   -2.6480    0.4960 C.3       1    LIG21    0.0000
     11 N3         -1.3160    2.9710    0.0150 N.pl3     1    LIG21    0.0000
     12 C9         -2.1580    3.8420    0.6190 C.2       1    LIG21    0.0000
     13 N4         -3.1510    3.4680    1.4600 N.2       1    LIG21    0.0000
     14 C10        -4.0190    4.3140    2.0810 C.2       1    LIG21    0.0000
     15 C11        -3.8470    5.6970    1.8110 C.2       1    LIG21    0.0000
     16 C12        -2.8160    6.0830    0.9380 C.2       1    LIG21    0.0000
     17 N5         -2.0080    5.1600    0.3700 N.2       1    LIG21    0.0000
     18 F1         -4.5730    6.6560    2.3140 F         1    LIG21    0.0000
     19 C13        -5.0080    3.7100    2.9350 C.2       1    LIG21    0.0000
     20 C14        -5.0170    2.2950    3.0940 C.2       1    LIG21    0.0000
     21 C15        -5.9530    1.6320    3.9100 C.2       1    LIG21    0.0000
     22 C16        -6.9060    2.4050    4.5850 C.2       1    LIG21    0.0000
     23 C17        -6.9370    3.7870    4.4590 C.2       1    LIG21    0.0000
     24 C18        -5.9980    4.4450    3.6420 C.2       1    LIG21    0.0000
     25 F2         -5.9280    0.3330    4.0290 F         1    LIG21    0.0000
     26 N6         -7.8900    2.0230    5.4050 N.2       1    LIG21    0.0000
     27 C19        -8.5230    3.1490    5.7830 C.2       1    LIG21    0.0000
     28 N7         -7.9570    4.2460    5.2160 N.pl3     1    LIG21    0.0000
     29 C20        -9.6720    3.0780    6.6940 C.3       1    LIG21    0.0000
     30 C21        -8.3670    5.6130    5.3890 C.3       1    LIG21    0.0000
     31 C22        -2.5120   -4.6270    1.3190 C.3       1    LIG21    0.0000
     32 C23        -7.2700    6.4680    6.0470 C.3       1    LIG21    0.0000
     33 C24        -8.8430    6.2440    4.0680 C.3       1    LIG21    0.0000
     34 C25        -2.4190   -5.3670    0.0910 C.2       1    LIG21    0.0000
     35 N8         -1.4020   -6.1000   -0.1510 N.2       1    LIG21    0.0000
     36 O1         -1.3100   -6.7520   -1.2320 O.3       1    LIG21    0.0000
     37 H1          0.3000   -1.0830   -0.9720 H         1    LIG21    0.0000
     38 H2          0.3000    1.3270   -1.1760 H         1    LIG21    0.0000
     39 H3         -3.2010   -0.4350    2.9620 H         1    LIG21    0.0000
     40 H4         -4.2050   -0.8770    1.5710 H         1    LIG21    0.0000
     41 H5         -3.8310   -2.8960    2.7630 H         1    LIG21    0.0000
     42 H6         -2.1090   -2.5480    3.0180 H         1    LIG21    0.0000
     43 H7         -1.2080   -3.0750   -0.5010 H         1    LIG21    0.0000
     44 H8         -0.4940   -2.9570    1.1170 H         1    LIG21    0.0000
     45 H9         -0.6480    3.3530   -0.5740 H         1    LIG21    0.0000
     46 H10        -2.6690    7.0710    0.7250 H         1    LIG21    0.0000
     47 H11        -4.3280    1.7200    2.6050 H         1    LIG21    0.0000
     48 H12        -6.0550    5.4530    3.5740 H         1    LIG21    0.0000
     49 H13       -10.0870    4.0570    6.9140 H         1    LIG21    0.0000
     50 H14       -10.4470    2.4630    6.2370 H         1    LIG21    0.0000
     51 H15        -9.3550    2.6130    7.6280 H         1    LIG21    0.0000
     52 H16        -9.2200    5.6630    6.0610 H         1    LIG21    0.0000
     53 H17        -1.6500   -4.8380    1.9560 H         1    LIG21    0.0000
     54 H18        -3.4130   -4.9620    1.8360 H         1    LIG21    0.0000
     55 H19        -7.6780    7.4490    6.2940 H         1    LIG21    0.0000
     56 H20        -6.9330    5.9840    6.9640 H         1    LIG21    0.0000
     57 H21        -6.4220    6.6000    5.3780 H         1    LIG21    0.0000
     58 H22        -9.2750    7.2240    4.2720 H         1    LIG21    0.0000
     59 H23        -8.0160    6.3650    3.3710 H         1    LIG21    0.0000
     60 H24        -9.6040    5.6080    3.6150 H         1    LIG21    0.0000
     61 H25        -3.1530   -5.3000   -0.5730 H         1    LIG21    0.0000
     62 H26        -0.4910   -7.2850   -1.3140 H         1    LIG21    0.0000
@<TRIPOS>BOND
     1    1    2 2
     2    1    6 1
     3    2    3 1
     4    2    7 1
     5    3    4 2
     6    3   10 1
     7    4    5 1
     8    4   37 1
     9    5    6 2
    10    5   38 1
    11    6   11 1
    12    7    8 1
    13    7   39 1
    14    7   40 1
    15    8    9 1
    16    8   41 1
    17    8   42 1
    18    9   10 1
    19    9   31 1
    20   10   43 1
    21   10   44 1
    22   11   12 1
    23   11   45 1
    24   12   13 2
    25   12   17 1
    26   13   14 1
    27   14   15 2
    28   14   19 1
    29   15   16 1
    30   15   18 1
    31   16   17 2
    32   16   46 1
    33   19   20 2
    34   19   24 1
    35   20   21 1
    36   20   47 1
    37   21   22 2
    38   21   25 1
    39   22   23 1
    40   22   26 1
    41   23   24 2
    42   23   28 1
    43   24   48 1
    44   26   27 2
    45   27   28 1
    46   27   29 1
    47   28   30 1
    48   29   49 1
    49   29   50 1
    50   29   51 1
    51   30   32 1
    52   30   33 1
    53   30   52 1
    54   31   34 1
    55   31   53 1
    56   31   54 1
    57   32   55 1
    58   32   56 1
    59   32   57 1
    60   33   58 1
    61   33   59 1
    62   33   60 1
    63   34   35 2
    64   34   61 1
    65   35   36 1
    66   36   62 1
@<TRIPOS>SUBSTRUCTURE
     1    LIG21    1   GROUP 1   LIG 1
@<TRIPOS>MOLECULE
50511849
   24    26    1     0     0
SMALL
USER_CHARGES


@<TRIPOS>ATOM
      1 C1          5.8760  -15.9040    0.5410 C.2       1    LIG22    0.0000
      2 N1          3.8200  -15.2110    0.5040 N.2       1    LIG22    0.0000
      3 N2          4.5770  -16.2670    0.5980 N.2       1    LIG22    0.0000
      4 C2          4.6480  -14.1640    0.3890 C.2       1    LIG22    0.0000
      5 N3          5.8960  -14.5760    0.4120 N.pl3     1    LIG22    0.0000
      6 N4          6.7950  -13.6620    0.3120 N.2       1    LIG22    0.0000
      7 C3          6.1830  -12.4660    0.2020 C.2       1    LIG22    0.0000
      8 S1          4.4410  -12.4590    0.2250 S.3       1    LIG22    0.0000
      9 C4          7.0360  -16.8010    0.6150 C.3       1    LIG22    0.0000
     10 C5          7.8290  -16.7790   -0.6310 C.2       1    LIG22    0.0000
     11 C6          9.1380  -16.2530   -0.6380 C.2       1    LIG22    0.0000
     12 C7          9.8960  -16.2390   -1.8220 C.2       1    LIG22    0.0000
     13 C8          9.3520  -16.7540   -3.0100 C.2       1    LIG22    0.0000
     14 C9          8.0500  -17.2840   -3.0140 C.2       1    LIG22    0.0000
     15 C10         7.2940  -17.2970   -1.8290 C.2       1    LIG22    0.0000
     16 S2          7.0940  -11.0040    0.0430 S.3       1    LIG22    0.0000
     17 H1          7.6450  -16.4900    1.4650 H         1    LIG22    0.0000
     18 H2          6.6900  -17.8200    0.8000 H         1    LIG22    0.0000
     19 H3          9.5420  -15.8760    0.2200 H         1    LIG22    0.0000
     20 H4         10.8410  -15.8550   -1.8180 H         1    LIG22    0.0000
     21 H5          9.9020  -16.7450   -3.8690 H         1    LIG22    0.0000
     22 H6          7.6550  -17.6600   -3.8760 H         1    LIG22    0.0000
     23 H7          6.3500  -17.6850   -1.8400 H         1    LIG22    0.0000
     24 H8          6.0690  -10.1150   -0.0480 H         1    LIG22    0.0000
@<TRIPOS>BOND
     1    1    3 2
     2    1    5 1
     3    1    9 1
     4    2    3 1
     5    2    4 2
     6    4    5 1
     7    4    8 1
     8    5    6 1
     9    6    7 2
    10    7    8 1
    11    7   16 1
    12    9   10 1
    13    9   17 1
    14    9   18 1
    15   10   11 2
    16   10   15 1
    17   11   12 1
    18   11   19 1
    19   12   13 2
    20   12   20 1
    21   13   14 1
    22   13   21 1
    23   14   15 2
    24   14   22 1
    25   15   23 1
    26   16   24 1
@<TRIPOS>SUBSTRUCTURE
     1    LIG22    1   GROUP 1   LIG 1
@<TRIPOS>MOLECULE
50345372
   84    87    1     0     0
SMALL
USER_CHARGES


@<TRIPOS>ATOM
      1 C1         -2.5660   -5.4700    0.6660 C.2       1    LIG23    0.0000
      2 C2         -2.5390   -6.8130    0.2480 C.2       1    LIG23    0.0000
      3 C3         -1.2970   -7.4180   -0.0260 C.2       1    LIG23    0.0000
      4 C4         -0.1020   -6.6960    0.1300 C.2       1    LIG23    0.0000
      5 C5         -0.1200   -5.3520    0.5640 C.2       1    LIG23    0.0000
      6 C6         -1.3710   -4.7490    0.8250 C.2       1    LIG23    0.0000
      7 C7          1.0820   -4.6330    0.7730 C.2       1    LIG23    0.0000
      8 N1          2.2380   -5.0210    0.1710 N.am      1    LIG23    0.0000
      9 O1          1.0650   -3.6390    1.5350 O.2       1    LIG23    0.0000
     10 C8          3.4520   -4.4740    0.3990 C.2       1    LIG23    0.0000
     11 S1          3.7450   -3.2110    1.5490 S.3       1    LIG23    0.0000
     12 C9          5.4240   -3.3770    1.1730 C.2       1    LIG23    0.0000
     13 C10         5.6610   -4.3100    0.1750 C.2       1    LIG23    0.0000
     14 N2          4.5450   -4.9260   -0.2370 N.2       1    LIG23    0.0000
     15 S2          6.6680   -2.4940    2.0000 S.3       1    LIG23    0.0000
     16 C11        -3.7970   -7.5700    0.1180 C.3       1    LIG23    0.0000
     17 N3         -4.4730   -7.6140    1.4250 N.3       1    LIG23    0.0000
     18 C12        -5.5430   -8.6280    1.4950 C.3       1    LIG23    0.0000
     19 C13        -6.0370   -8.7480    2.9640 C.3       1    LIG23    0.0000
     20 C14        -6.6710   -8.2750    0.5060 C.3       1    LIG23    0.0000
     21 C15        -4.8470   -9.1160    3.8740 C.3       1    LIG23    0.0000
     22 C16        -6.6470   -7.4230    3.4660 C.3       1    LIG23    0.0000
     23 C17        -7.0920   -9.8640    3.1030 C.3       1    LIG23    0.0000
     24 C18         5.9300   -2.0770    3.5180 C.2       1    LIG23    0.0000
     25 C19         5.2940   -3.0690    4.2850 C.2       1    LIG23    0.0000
     26 C20         4.6380   -2.7410    5.4880 C.2       1    LIG23    0.0000
     27 C21         4.6460   -1.4060    5.9490 C.2       1    LIG23    0.0000
     28 C22         5.3140   -0.4210    5.1880 C.2       1    LIG23    0.0000
     29 C23         5.9550   -0.7460    3.9760 C.2       1    LIG23    0.0000
     30 O2          3.9900   -1.1190    7.1160 O.3       1    LIG23    0.0000
     31 C24         3.8950    0.2040    7.6490 C.3       1    LIG23    0.0000
     32 C25         6.6250    0.2960    3.1810 C.3       1    LIG23    0.0000
     33 C26         3.9870   -3.7600    6.2100 C.2       1    LIG23    0.0000
     34 N4          2.8860   -4.4420    5.7500 N.am      1    LIG23    0.0000
     35 O3          4.4900   -4.0690    7.3140 O.2       1    LIG23    0.0000
     36 C27         2.3450   -5.5530    6.4780 C.3       1    LIG23    0.0000
     37 C28         0.8510   -5.3220    6.7610 C.3       1    LIG23    0.0000
     38 N5          0.1860   -5.0300    5.5300 N.am      1    LIG23    0.0000
     39 C29         0.7010   -3.8990    4.8250 C.3       1    LIG23    0.0000
     40 C30         2.1950   -4.1200    4.5340 C.3       1    LIG23    0.0000
     41 C31        -0.8420   -5.7820    5.0340 C.2       1    LIG23    0.0000
     42 C32        -1.3690   -6.9610    5.7300 C.3       1    LIG23    0.0000
     43 O4         -1.3720   -5.4830    3.9410 O.2       1    LIG23    0.0000
     44 H1         -3.4580   -5.0180    0.8730 H         1    LIG23    0.0000
     45 H2         -1.2600   -8.3920   -0.3300 H         1    LIG23    0.0000
     46 H3          0.7840   -7.1670   -0.0630 H         1    LIG23    0.0000
     47 H4         -1.4190   -3.7810    1.1470 H         1    LIG23    0.0000
     48 H5          2.1960   -5.7610   -0.4540 H         1    LIG23    0.0000
     49 H6          6.5910   -4.5310   -0.1820 H         1    LIG23    0.0000
     50 H7         -4.4400   -7.0720   -0.6090 H         1    LIG23    0.0000
     51 H8         -3.5990   -8.5870   -0.2270 H         1    LIG23    0.0000
     52 H9         -3.7630   -7.9010    2.1020 H         1    LIG23    0.0000
     53 H10        -5.1280   -9.5940    1.2010 H         1    LIG23    0.0000
     54 H11        -7.4930   -8.9830    0.5990 H         1    LIG23    0.0000
     55 H12        -7.0360   -7.2660    0.6990 H         1    LIG23    0.0000
     56 H13        -6.2950   -8.3270   -0.5150 H         1    LIG23    0.0000
     57 H14        -5.1940   -9.2760    4.8960 H         1    LIG23    0.0000
     58 H15        -4.3750  -10.0300    3.5130 H         1    LIG23    0.0000
     59 H16        -4.1110   -8.3120    3.8800 H         1    LIG23    0.0000
     60 H17        -6.9230   -7.5170    4.5170 H         1    LIG23    0.0000
     61 H18        -5.9230   -6.6150    3.3610 H         1    LIG23    0.0000
     62 H19        -7.5400   -7.1790    2.8900 H         1    LIG23    0.0000
     63 H20        -7.3250  -10.0260    4.1570 H         1    LIG23    0.0000
     64 H21        -8.0110   -9.5870    2.5870 H         1    LIG23    0.0000
     65 H22        -6.7070  -10.7920    2.6790 H         1    LIG23    0.0000
     66 H23         5.2960   -4.0340    3.9490 H         1    LIG23    0.0000
     67 H24         5.3250    0.5460    5.5120 H         1    LIG23    0.0000
     68 H25         3.3160    0.1690    8.5720 H         1    LIG23    0.0000
     69 H26         4.8890    0.5960    7.8700 H         1    LIG23    0.0000
     70 H27         3.3880    0.8610    6.9400 H         1    LIG23    0.0000
     71 H28         6.5520    1.2730    3.6640 H         1    LIG23    0.0000
     72 H29         7.6800    0.0420    3.0650 H         1    LIG23    0.0000
     73 H30         6.1590    0.3570    2.1970 H         1    LIG23    0.0000
     74 H31         2.8520   -5.7220    7.4290 H         1    LIG23    0.0000
     75 H32         2.4500   -6.4540    5.8720 H         1    LIG23    0.0000
     76 H33         0.4520   -6.2030    7.2640 H         1    LIG23    0.0000
     77 H34         0.7460   -4.4700    7.4340 H         1    LIG23    0.0000
     78 H35         0.1830   -3.7200    3.8820 H         1    LIG23    0.0000
     79 H36         0.5910   -3.0100    5.4480 H         1    LIG23    0.0000
     80 H37         2.5720   -3.2180    4.0540 H         1    LIG23    0.0000
     81 H38         2.2970   -4.9510    3.8340 H         1    LIG23    0.0000
     82 H39        -2.1780   -7.4050    5.1500 H         1    LIG23    0.0000
     83 H40        -0.5750   -7.6980    5.8530 H         1    LIG23    0.0000
     84 H41        -1.7520   -6.6670    6.7070 H         1    LIG23    0.0000
@<TRIPOS>BOND
     1    1    2 1
     2    1    6 2
     3    1   44 1
     4    2    3 2
     5    2   16 1
     6    3    4 1
     7    3   45 1
     8    4    5 2
     9    4   46 1
    10    5    6 1
    11    5    7 1
    12    6   47 1
    13    7    8 1
    14    7    9 2
    15    8   10 1
    16    8   48 1
    17   10   11 1
    18   10   14 2
    19   11   12 1
    20   12   13 2
    21   12   15 1
    22   13   14 1
    23   13   49 1
    24   15   24 1
    25   16   17 1
    26   16   50 1
    27   16   51 1
    28   17   18 1
    29   17   52 1
    30   18   19 1
    31   18   20 1
    32   18   53 1
    33   19   21 1
    34   19   22 1
    35   19   23 1
    36   20   54 1
    37   20   55 1
    38   20   56 1
    39   21   57 1
    40   21   58 1
    41   21   59 1
    42   22   60 1
    43   22   61 1
    44   22   62 1
    45   23   63 1
    46   23   64 1
    47   23   65 1
    48   24   25 2
    49   24   29 1
    50   25   26 1
    51   25   66 1
    52   26   27 2
    53   26   33 1
    54   27   28 1
    55   27   30 1
    56   28   29 2
    57   28   67 1
    58   29   32 1
    59   30   31 1
    60   31   68 1
    61   31   69 1
    62   31   70 1
    63   32   71 1
    64   32   72 1
    65   32   73 1
    66   33   34 1
    67   33   35 2
    68   34   36 1
    69   34   40 1
    70   36   37 1
    71   36   74 1
    72   36   75 1
    73   37   38 1
    74   37   76 1
    75   37   77 1
    76   38   39 1
    77   38   41 1
    78   39   40 1
    79   39   78 1
    80   39   79 1
    81   40   80 1
    82   40   81 1
    83   41   42 1
    84   41   43 2
    85   42   82 1
    86   42   83 1
    87   42   84 1
@<TRIPOS>SUBSTRUCTURE
     1    LIG23    1   GROUP 1   LIG 1
@<TRIPOS>MOLECULE
923976
   54    58    1     0     0
SMALL
USER_CHARGES


@<TRIPOS>ATOM
      1 O1         36.1620  -23.4490   -9.2800 O.2       1    LIG24    0.0000
      2 S1         36.8610  -24.8200   -8.8830 S.o2      1    LIG24    0.0000
      3 O2         37.2230  -26.0110   -9.8720 O.2       1    LIG24    0.0000
      4 C1         31.5530  -22.3920   -0.5860 C.2       1    LIG24    0.0000
      5 C2         31.5850  -23.7870   -0.4540 C.2       1    LIG24    0.0000
      6 C3         32.2540  -24.5630   -1.4080 C.2       1    LIG24    0.0000
      7 C4         32.1890  -21.7500   -1.6730 C.2       1    LIG24    0.0000
      8 C5         32.1210  -20.3400   -1.6930 C.2       1    LIG24    0.0000
      9 C6         33.2200  -19.5660   -1.2590 C.2       1    LIG24    0.0000
     10 C7         33.1650  -18.1620   -1.3140 C.2       1    LIG24    0.0000
     11 C8         32.0120  -17.5220   -1.7960 C.2       1    LIG24    0.0000
     12 C9         30.9110  -18.2840   -2.2210 C.2       1    LIG24    0.0000
     13 C10        30.9640  -19.6870   -2.1690 C.2       1    LIG24    0.0000
     14 C11        32.8610  -22.5330   -2.6600 C.2       1    LIG24    0.0000
     15 C12        32.8840  -23.9460   -2.5000 C.2       1    LIG24    0.0000
     16 N1         33.5110  -24.7420   -3.3960 N.2       1    LIG24    0.0000
     17 C13        34.1420  -24.2550   -4.4880 C.2       1    LIG24    0.0000
     18 N2         34.1230  -22.9140   -4.6690 N.2       1    LIG24    0.0000
     19 C14        33.5190  -22.0470   -3.8200 C.2       1    LIG24    0.0000
     20 N3         33.5770  -20.7350   -4.1540 N.pl3     1    LIG24    0.0000
     21 C15        34.2420  -20.2390   -5.3080 C.3       1    LIG24    0.0000
     22 C16        34.1240  -18.7740   -5.3530 C.2       1    LIG24    0.0000
     23 C17        34.7910  -25.1100   -5.4080 C.2       1    LIG24    0.0000
     24 C18        34.8260  -26.5070   -5.2120 C.2       1    LIG24    0.0000
     25 N4         35.4550  -27.3100   -6.1060 N.2       1    LIG24    0.0000
     26 C19        36.0720  -26.8350   -7.2150 C.2       1    LIG24    0.0000
     27 C20        36.0740  -25.4570   -7.4730 C.2       1    LIG24    0.0000
     28 C21        35.4310  -24.6030   -6.5600 C.2       1    LIG24    0.0000
     29 N5         35.2390  -18.0040   -5.2650 N.2       1    LIG24    0.0000
     30 C22        35.2060  -16.6470   -5.2820 C.2       1    LIG24    0.0000
     31 C23        33.9740  -15.9840   -5.3930 C.2       1    LIG24    0.0000
     32 C24        32.8000  -16.7480   -5.4890 C.2       1    LIG24    0.0000
     33 C25        32.8680  -18.1500   -5.4720 C.2       1    LIG24    0.0000
     34 N6         38.3530  -24.3250   -8.3020 N.pl3     1    LIG24    0.0000
     35 H1         31.0650  -21.8450    0.1260 H         1    LIG24    0.0000
     36 H2         31.1240  -24.2360    0.3380 H         1    LIG24    0.0000
     37 H3         32.2790  -25.5790   -1.3080 H         1    LIG24    0.0000
     38 H4         34.0680  -20.0190   -0.9130 H         1    LIG24    0.0000
     39 H5         33.9650  -17.6080   -1.0070 H         1    LIG24    0.0000
     40 H6         31.9740  -16.5030   -1.8380 H         1    LIG24    0.0000
     41 H7         30.0740  -17.8180   -2.5730 H         1    LIG24    0.0000
     42 H8         30.1590  -20.2290   -2.4890 H         1    LIG24    0.0000
     43 H9         33.1470  -20.0870   -3.5810 H         1    LIG24    0.0000
     44 H10        35.2970  -20.5160   -5.2660 H         1    LIG24    0.0000
     45 H11        33.7990  -20.6670   -6.2090 H         1    LIG24    0.0000
     46 H12        34.3810  -26.9300   -4.3970 H         1    LIG24    0.0000
     47 H13        36.5320  -27.4800   -7.8580 H         1    LIG24    0.0000
     48 H14        35.4340  -23.5990   -6.7460 H         1    LIG24    0.0000
     49 H15        36.0720  -16.1130   -5.2120 H         1    LIG24    0.0000
     50 H16        33.9320  -14.9650   -5.4040 H         1    LIG24    0.0000
     51 H17        31.8950  -16.2840   -5.5690 H         1    LIG24    0.0000
     52 H18        32.0150  -18.7080   -5.5370 H         1    LIG24    0.0000
     53 H19        39.1060  -24.9350   -8.3250 H         1    LIG24    0.0000
     54 H20        38.4630  -23.4230   -7.9650 H         1    LIG24    0.0000
@<TRIPOS>BOND
     1    1    2 2
     2    2    3 2
     3    2   27 1
     4    2   34 1
     5    4    5 2
     6    4    7 1
     7    4   35 1
     8    5    6 1
     9    5   36 1
    10    6   15 2
    11    6   37 1
    12    7    8 1
    13    7   14 2
    14    8    9 2
    15    8   13 1
    16    9   10 1
    17    9   38 1
    18   10   11 2
    19   10   39 1
    20   11   12 1
    21   11   40 1
    22   12   13 2
    23   12   41 1
    24   13   42 1
    25   14   15 1
    26   14   19 1
    27   15   16 1
    28   16   17 2
    29   17   18 1
    30   17   23 1
    31   18   19 2
    32   19   20 1
    33   20   21 1
    34   20   43 1
    35   21   22 1
    36   21   44 1
    37   21   45 1
    38   22   29 2
    39   22   33 1
    40   23   24 2
    41   23   28 1
    42   24   25 1
    43   24   46 1
    44   25   26 2
    45   26   27 1
    46   26   47 1
    47   27   28 2
    48   28   48 1
    49   29   30 1
    50   30   31 2
    51   30   49 1
    52   31   32 1
    53   31   50 1
    54   32   33 2
    55   32   51 1
    56   33   52 1
    57   34   53 1
    58   34   54 1
@<TRIPOS>SUBSTRUCTURE
     1    LIG24    1   GROUP 1   LIG 1
@<TRIPOS>MOLECULE
50515659
   36    39    1     0     0
SMALL
USER_CHARGES


@<TRIPOS>ATOM
      1 C1          3.2870  -20.1950    0.6450 C.2       1    LIG25    0.0000
      2 C2          4.6240  -19.8240    0.8920 C.2       1    LIG25    0.0000
      3 C3          4.9280  -18.5560    1.4310 C.2       1    LIG25    0.0000
      4 C4          3.9000  -17.6410    1.7340 C.2       1    LIG25    0.0000
      5 C5          2.2760  -19.2700    0.9520 C.2       1    LIG25    0.0000
      6 C6          2.5670  -18.0150    1.4890 C.2       1    LIG25    0.0000
      7 N1          1.4110  -17.3410    1.6710 N.pl3     1    LIG25    0.0000
      8 C7          0.3960  -18.1340    1.2670 C.2       1    LIG25    0.0000
      9 C8          0.8990  -19.3480    0.8120 C.2       1    LIG25    0.0000
     10 C9          1.2550  -16.0160    2.1840 C.3       1    LIG25    0.0000
     11 C10         0.7450  -15.0410    1.1030 C.3       1    LIG25    0.0000
     12 C11         1.6790  -14.9440   -0.0310 C.2       1    LIG25    0.0000
     13 N2          3.5270  -14.5180   -1.2180 N.pl3     1    LIG25    0.0000
     14 C12         2.9670  -14.4090    0.0000 C.2       1    LIG25    0.0000
     15 C13         2.6510  -15.1070   -2.0450 C.2       1    LIG25    0.0000
     16 C14         1.4840  -15.3860   -1.3360 C.2       1    LIG25    0.0000
     17 C15         0.3930  -16.0200   -1.9550 C.2       1    LIG25    0.0000
     18 C16         0.5040  -16.3650   -3.3170 C.2       1    LIG25    0.0000
     19 C17         1.6880  -16.0790   -4.0350 C.2       1    LIG25    0.0000
     20 C18         2.7750  -15.4460   -3.4010 C.2       1    LIG25    0.0000
     21 F1         -0.4910  -16.9540   -3.9170 F         1    LIG25    0.0000
     22 H1          3.0620  -21.1090    0.2520 H         1    LIG25    0.0000
     23 H2          5.3770  -20.4780    0.6770 H         1    LIG25    0.0000
     24 H3          5.9010  -18.2990    1.6020 H         1    LIG25    0.0000
     25 H4          4.1240  -16.7230    2.1190 H         1    LIG25    0.0000
     26 H5         -0.5930  -17.8810    1.2870 H         1    LIG25    0.0000
     27 H6          0.3620  -20.1340    0.4440 H         1    LIG25    0.0000
     28 H7          0.5350  -16.0370    3.0040 H         1    LIG25    0.0000
     29 H8          2.1970  -15.6370    2.5820 H         1    LIG25    0.0000
     30 H9         -0.2330  -15.3810    0.7580 H         1    LIG25    0.0000
     31 H10         0.6230  -14.0520    1.5470 H         1    LIG25    0.0000
     32 H11         4.4190  -14.2240   -1.4580 H         1    LIG25    0.0000
     33 H12         3.4190  -14.0060    0.8220 H         1    LIG25    0.0000
     34 H13        -0.4580  -16.2280   -1.4300 H         1    LIG25    0.0000
     35 H14         1.7600  -16.3350   -5.0210 H         1    LIG25    0.0000
     36 H15         3.6330  -15.2410   -3.9150 H         1    LIG25    0.0000
@<TRIPOS>BOND
     1    1    2 1
     2    1    5 2
     3    1   22 1
     4    2    3 2
     5    2   23 1
     6    3    4 1
     7    3   24 1
     8    4    6 2
     9    4   25 1
    10    5    6 1
    11    5    9 1
    12    6    7 1
    13    7    8 1
    14    7   10 1
    15    8    9 2
    16    8   26 1
    17    9   27 1
    18   10   11 1
    19   10   28 1
    20   10   29 1
    21   11   12 1
    22   11   30 1
    23   11   31 1
    24   12   14 2
    25   12   16 1
    26   13   14 1
    27   13   15 1
    28   13   32 1
    29   14   33 1
    30   15   16 1
    31   15   20 2
    32   16   17 2
    33   17   18 1
    34   17   34 1
    35   18   19 2
    36   18   21 1
    37   19   20 1
    38   19   35 1
    39   20   36 1
@<TRIPOS>SUBSTRUCTURE
     1    LIG25    1   GROUP 1   LIG 1
@<TRIPOS>MOLECULE
50515617
   45    48    1     0     0
SMALL
USER_CHARGES


@<TRIPOS>ATOM
      1 C1         16.7880   -2.2230    0.6200 C.2       1    LIG26    0.0000
      2 C2         16.8530   -3.6280    0.5040 C.2       1    LIG26    0.0000
      3 C3         18.0110   -4.3270    0.9010 C.2       1    LIG26    0.0000
      4 C4         17.8800   -1.4960    1.1350 C.2       1    LIG26    0.0000
      5 C5         19.0250   -2.2090    1.5260 C.2       1    LIG26    0.0000
      6 C6         19.0980   -3.5980    1.4180 C.2       1    LIG26    0.0000
      7 N1         20.3140   -4.0040    1.8420 N.pl3     1    LIG26    0.0000
      8 C7         21.0110   -2.9120    2.2220 C.2       1    LIG26    0.0000
      9 C8         20.2350   -1.7720    2.0410 C.2       1    LIG26    0.0000
     10 C9         20.8230   -5.3380    1.8600 C.3       1    LIG26    0.0000
     11 C10        21.8980   -5.5380    0.7750 C.3       1    LIG26    0.0000
     12 C11        21.3010   -5.2950   -0.6200 C.3       1    LIG26    0.0000
     13 C12        22.3680   -5.3920   -1.7220 C.3       1    LIG26    0.0000
     14 C13        21.7430   -5.1120   -3.1010 C.3       1    LIG26    0.0000
     15 N2         21.1270   -3.8240   -3.1370 N.pl3     1    LIG26    0.0000
     16 C14        21.7970   -2.6520   -3.1050 C.2       1    LIG26    0.0000
     17 C15        20.8920   -1.5940   -3.1060 C.2       1    LIG26    0.0000
     18 C16        19.8050   -3.5500   -3.1640 C.2       1    LIG26    0.0000
     19 C17        19.6310   -2.1660   -3.1380 C.2       1    LIG26    0.0000
     20 C18        18.3540   -1.5830   -3.1310 C.2       1    LIG26    0.0000
     21 C19        17.2330   -2.4360   -3.1490 C.2       1    LIG26    0.0000
     22 C20        17.3980   -3.8370   -3.1730 C.2       1    LIG26    0.0000
     23 C21        18.6880   -4.4060   -3.1780 C.2       1    LIG26    0.0000
     24 H1         15.9460   -1.7290    0.3250 H         1    LIG26    0.0000
     25 H2         16.0580   -4.1420    0.1240 H         1    LIG26    0.0000
     26 H3         18.0600   -5.3410    0.8060 H         1    LIG26    0.0000
     27 H4         17.8400   -0.4790    1.2140 H         1    LIG26    0.0000
     28 H5         21.9680   -2.9190    2.5780 H         1    LIG26    0.0000
     29 H6         20.5080   -0.8090    2.2370 H         1    LIG26    0.0000
     30 H7         21.2600   -5.5460    2.8380 H         1    LIG26    0.0000
     31 H8         20.0250   -6.0620    1.6890 H         1    LIG26    0.0000
     32 H9         22.7220   -4.8440    0.9460 H         1    LIG26    0.0000
     33 H10        22.2770   -6.5590    0.8310 H         1    LIG26    0.0000
     34 H11        20.5150   -6.0280   -0.8090 H         1    LIG26    0.0000
     35 H12        20.8670   -4.2970   -0.6430 H         1    LIG26    0.0000
     36 H13        23.1580   -4.6660   -1.5260 H         1    LIG26    0.0000
     37 H14        22.7980   -6.3940   -1.7220 H         1    LIG26    0.0000
     38 H15        22.5220   -5.1630   -3.8640 H         1    LIG26    0.0000
     39 H16        21.0150   -5.8960   -3.3120 H         1    LIG26    0.0000
     40 H17        22.8120   -2.5540   -3.0710 H         1    LIG26    0.0000
     41 H18        21.1150   -0.5990   -3.0750 H         1    LIG26    0.0000
     42 H19        18.2380   -0.5690   -3.1060 H         1    LIG26    0.0000
     43 H20        16.2930   -2.0370   -3.1410 H         1    LIG26    0.0000
     44 H21        16.5780   -4.4440   -3.1820 H         1    LIG26    0.0000
     45 H22        18.8050   -5.4190   -3.1860 H         1    LIG26    0.0000
@<TRIPOS>BOND
     1    1    2 2
     2    1    4 1
     3    1   24 1
     4    2    3 1
     5    2   25 1
     6    3    6 2
     7    3   26 1
     8    4    5 2
     9    4   27 1
    10    5    6 1
    11    5    9 1
    12    6    7 1
    13    7    8 1
    14    7   10 1
    15    8    9 2
    16    8   28 1
    17    9   29 1
    18   10   11 1
    19   10   30 1
    20   10   31 1
    21   11   12 1
    22   11   32 1
    23   11   33 1
    24   12   13 1
    25   12   34 1
    26   12   35 1
    27   13   14 1
    28   13   36 1
    29   13   37 1
    30   14   15 1
    31   14   38 1
    32   14   39 1
    33   15   16 1
    34   15   18 1
    35   16   17 2
    36   16   40 1
    37   17   19 1
    38   17   41 1
    39   18   19 1
    40   18   23 2
    41   19   20 2
    42   20   21 1
    43   20   42 1
    44   21   22 2
    45   21   43 1
    46   22   23 1
    47   22   44 1
    48   23   45 1
@<TRIPOS>SUBSTRUCTURE
     1    LIG26    1   GROUP 1   LIG 1
@<TRIPOS>MOLECULE
907159
   69    73    1     0     0
SMALL
USER_CHARGES


@<TRIPOS>ATOM
      1 N1         -2.3460    1.0380    0.7420 N.2       1    LIG27    0.0000
      2 C1         -2.3440   -0.3110    0.8710 C.2       1    LIG27    0.0000
      3 C2         -1.1620   -1.0290    0.5990 C.2       1    LIG27    0.0000
      4 C3         -0.0080   -0.3040    0.2480 C.2       1    LIG27    0.0000
      5 C4         -0.0500    1.0950    0.1400 C.2       1    LIG27    0.0000
      6 C5         -1.2580    1.7690    0.3850 C.2       1    LIG27    0.0000
      7 C6         -3.5800   -0.9890    1.2870 C.3       1    LIG27    0.0000
      8 C7         -3.3560   -2.4660    1.6610 C.3       1    LIG27    0.0000
      9 N2         -2.4870   -3.1090    0.6570 N.3       1    LIG27    0.0000
     10 C8         -1.1330   -2.5010    0.6860 C.3       1    LIG27    0.0000
     11 N3         -1.2900    3.1200    0.2590 N.pl3     1    LIG27    0.0000
     12 C9         -2.3710    3.9150    0.4370 C.2       1    LIG27    0.0000
     13 N4         -3.5990    3.4490    0.7650 N.2       1    LIG27    0.0000
     14 C10        -4.7110    4.2120    0.9450 C.2       1    LIG27    0.0000
     15 C11        -4.5440    5.6120    0.7700 C.2       1    LIG27    0.0000
     16 C12        -3.2700    6.0940    0.4300 C.2       1    LIG27    0.0000
     17 N5         -2.2270    5.2470    0.2720 N.2       1    LIG27    0.0000
     18 F1         -5.4890    6.5020    0.8970 F         1    LIG27    0.0000
     19 C13        -5.9220    3.5150    1.2900 C.2       1    LIG27    0.0000
     20 C14        -5.8960    2.0950    1.4100 C.2       1    LIG27    0.0000
     21 C15        -7.0390    1.3440    1.7440 C.2       1    LIG27    0.0000
     22 C16        -8.2400    2.0320    1.9630 C.2       1    LIG27    0.0000
     23 C17        -8.3130    3.4140    1.8560 C.2       1    LIG27    0.0000
     24 C18        -7.1670    4.1590    1.5220 C.2       1    LIG27    0.0000
     25 F2         -6.9740    0.0460    1.8450 F         1    LIG27    0.0000
     26 N6         -9.4470    1.5580    2.2880 N.2       1    LIG27    0.0000
     27 C19       -10.2570    2.6280    2.3810 C.2       1    LIG27    0.0000
     28 N7         -9.5850    3.7790    2.1200 N.pl3     1    LIG27    0.0000
     29 C20       -11.6730    2.4520    2.7280 C.3       1    LIG27    0.0000
     30 C21       -10.1250    5.1120    2.1250 C.3       1    LIG27    0.0000
     31 C22        -2.4300   -4.5670    0.8900 C.3       1    LIG27    0.0000
     32 C23        -1.7830   -5.3350   -0.2770 C.3       1    LIG27    0.0000
     33 C24        -2.5250   -5.1060   -1.6060 C.3       1    LIG27    0.0000
     34 N8         -2.2920   -3.7480   -2.1090 N.3       1    LIG27    0.0000
     35 O1         -3.0500   -3.5600   -3.2170 O.3       1    LIG27    0.0000
     36 N9         -2.0300   -6.0590   -2.5980 N.3       1    LIG27    0.0000
     37 C25        -9.4650    6.0000    3.1950 C.3       1    LIG27    0.0000
     38 C26       -10.0490    5.7690    0.7360 C.3       1    LIG27    0.0000
     39 H1          0.8650   -0.7980    0.0590 H         1    LIG27    0.0000
     40 H2          0.7890    1.6130   -0.1230 H         1    LIG27    0.0000
     41 H3         -3.9920   -0.4760    2.1560 H         1    LIG27    0.0000
     42 H4         -4.3010   -0.9290    0.4720 H         1    LIG27    0.0000
     43 H5         -4.3270   -2.9620    1.6930 H         1    LIG27    0.0000
     44 H6         -2.8940   -2.5290    2.6490 H         1    LIG27    0.0000
     45 H7         -0.5690   -2.8820   -0.1650 H         1    LIG27    0.0000
     46 H8         -0.6140   -2.7860    1.6030 H         1    LIG27    0.0000
     47 H9         -0.4630    3.5610    0.0130 H         1    LIG27    0.0000
     48 H10        -3.1200    7.0950    0.2960 H         1    LIG27    0.0000
     49 H11        -5.0270    1.5840    1.2510 H         1    LIG27    0.0000
     50 H12        -7.2600    5.1640    1.4530 H         1    LIG27    0.0000
     51 H13       -12.2100    3.3950    2.7650 H         1    LIG27    0.0000
     52 H14       -12.1420    1.8100    1.9820 H         1    LIG27    0.0000
     53 H15       -11.7410    1.9710    3.7030 H         1    LIG27    0.0000
     54 H16       -11.1820    5.0840    2.3790 H         1    LIG27    0.0000
     55 H17        -1.8730   -4.7750    1.8050 H         1    LIG27    0.0000
     56 H18        -3.4440   -4.9500    1.0130 H         1    LIG27    0.0000
     57 H19        -0.7380   -5.0460   -0.3850 H         1    LIG27    0.0000
     58 H20        -1.8210   -6.3980   -0.0390 H         1    LIG27    0.0000
     59 H21        -3.5940   -5.2670   -1.4570 H         1    LIG27    0.0000
     60 H22        -2.6430   -3.1050   -1.3940 H         1    LIG27    0.0000
     61 H23        -2.9830   -2.6630   -3.6090 H         1    LIG27    0.0000
     62 H24        -2.5130   -5.8290   -3.4690 H         1    LIG27    0.0000
     63 H25        -1.0450   -5.8350   -2.7460 H         1    LIG27    0.0000
     64 H26       -10.0070    6.9440    3.2640 H         1    LIG27    0.0000
     65 H27        -9.5070    5.4970    4.1610 H         1    LIG27    0.0000
     66 H28        -8.4280    6.2100    2.9450 H         1    LIG27    0.0000
     67 H29       -10.5930    6.7140    0.7530 H         1    LIG27    0.0000
     68 H30        -9.0170    5.9650    0.4520 H         1    LIG27    0.0000
     69 H31       -10.5050    5.1100   -0.0030 H         1    LIG27    0.0000
@<TRIPOS>BOND
     1    1    2 2
     2    1    6 1
     3    2    3 1
     4    2    7 1
     5    3    4 2
     6    3   10 1
     7    4    5 1
     8    4   39 1
     9    5    6 2
    10    5   40 1
    11    6   11 1
    12    7    8 1
    13    7   41 1
    14    7   42 1
    15    8    9 1
    16    8   43 1
    17    8   44 1
    18    9   10 1
    19    9   31 1
    20   10   45 1
    21   10   46 1
    22   11   12 1
    23   11   47 1
    24   12   13 2
    25   12   17 1
    26   13   14 1
    27   14   15 2
    28   14   19 1
    29   15   16 1
    30   15   18 1
    31   16   17 2
    32   16   48 1
    33   19   20 2
    34   19   24 1
    35   20   21 1
    36   20   49 1
    37   21   22 2
    38   21   25 1
    39   22   23 1
    40   22   26 1
    41   23   24 2
    42   23   28 1
    43   24   50 1
    44   26   27 2
    45   27   28 1
    46   27   29 1
    47   28   30 1
    48   29   51 1
    49   29   52 1
    50   29   53 1
    51   30   37 1
    52   30   38 1
    53   30   54 1
    54   31   32 1
    55   31   55 1
    56   31   56 1
    57   32   33 1
    58   32   57 1
    59   32   58 1
    60   33   34 1
    61   33   36 1
    62   33   59 1
    63   34   35 1
    64   34   60 1
    65   35   61 1
    66   36   62 1
    67   36   63 1
    68   37   64 1
    69   37   65 1
    70   37   66 1
    71   38   67 1
    72   38   68 1
    73   38   69 1
@<TRIPOS>SUBSTRUCTURE
     1    LIG27    1   GROUP 1   LIG 1
@<TRIPOS>MOLECULE
907087
   68    72    1     0     0
SMALL
USER_CHARGES


@<TRIPOS>ATOM
      1 N1         -2.4990    0.8370    0.2050 N.2       1    LIG28    0.0000
      2 C1         -2.6420   -0.4780    0.5040 C.2       1    LIG28    0.0000
      3 C2         -1.5380   -1.1970    1.0020 C.2       1    LIG28    0.0000
      4 C3         -0.3320   -0.5050    1.2130 C.2       1    LIG28    0.0000
      5 C4         -0.2280    0.8610    0.9010 C.2       1    LIG28    0.0000
      6 C5         -1.3450    1.5330    0.3760 C.2       1    LIG28    0.0000
      7 C6         -3.9480   -1.1180    0.2990 C.3       1    LIG28    0.0000
      8 C7         -4.0460   -2.4980    0.9740 C.3       1    LIG28    0.0000
      9 N2         -2.8290   -3.2860    0.6910 N.3       1    LIG28    0.0000
     10 C8         -1.6430   -2.6380    1.3040 C.3       1    LIG28    0.0000
     11 N3         -1.2260    2.8490    0.0670 N.pl3     1    LIG28    0.0000
     12 C9         -2.1890    3.6380   -0.4630 C.2       1    LIG28    0.0000
     13 N4         -3.4300    3.1990   -0.7780 N.2       1    LIG28    0.0000
     14 C10        -4.4220    3.9580   -1.3210 C.2       1    LIG28    0.0000
     15 C11        -4.1050    5.3210   -1.5640 C.2       1    LIG28    0.0000
     16 C12        -2.8170    5.7750   -1.2360 C.2       1    LIG28    0.0000
     17 N5         -1.9010    4.9350   -0.7020 N.2       1    LIG28    0.0000
     18 F1         -4.9210    6.2030   -2.0720 F         1    LIG28    0.0000
     19 C13        -5.6690    3.2920   -1.5900 C.2       1    LIG28    0.0000
     20 C14        -5.8010    1.9100   -1.2710 C.2       1    LIG28    0.0000
     21 C15        -6.9870    1.1900   -1.5080 C.2       1    LIG28    0.0000
     22 C16        -8.0680    1.8700   -2.0830 C.2       1    LIG28    0.0000
     23 C17        -7.9860    3.2160   -2.4120 C.2       1    LIG28    0.0000
     24 C18        -6.7990    3.9310   -2.1690 C.2       1    LIG28    0.0000
     25 F2         -7.0690   -0.0740   -1.2000 F         1    LIG28    0.0000
     26 N6         -9.2840    1.4190   -2.4080 N.2       1    LIG28    0.0000
     27 C19        -9.9460    2.4680   -2.9310 C.2       1    LIG28    0.0000
     28 N7         -9.1710    3.5830   -2.9450 N.pl3     1    LIG28    0.0000
     29 C20       -11.3290    2.3080   -3.3970 C.3       1    LIG28    0.0000
     30 C21        -9.5420    4.8840   -3.4310 C.3       1    LIG28    0.0000
     31 C22        -3.0080   -4.6660    1.1910 C.3       1    LIG28    0.0000
     32 C23        -9.5260    5.9440   -2.3160 C.3       1    LIG28    0.0000
     33 C24        -8.6740    5.3250   -4.6230 C.3       1    LIG28    0.0000
     34 C25        -1.8760   -5.5930    0.7210 C.3       1    LIG28    0.0000
     35 N8         -2.1820   -6.9010    1.0600 N.2       1    LIG28    0.0000
     36 C26        -1.4340   -7.9400    0.7860 C.2       1    LIG28    0.0000
     37 N9         -0.2700   -7.8220    0.1330 N.pl3     1    LIG28    0.5000
     38 N10        -1.8510   -9.1510    1.1700 N.pl3     1    LIG28    0.5000
     39 H1          0.4800   -0.9980    1.5860 H         1    LIG28    0.0000
     40 H2          0.6530    1.3540    1.0480 H         1    LIG28    0.0000
     41 H3         -4.7280   -0.4800    0.7160 H         1    LIG28    0.0000
     42 H4         -4.1200   -1.2260   -0.7720 H         1    LIG28    0.0000
     43 H5         -4.9250   -3.0100    0.5800 H         1    LIG28    0.0000
     44 H6         -4.1650   -2.3710    2.0520 H         1    LIG28    0.0000
     45 H7         -0.7520   -3.1320    0.9140 H         1    LIG28    0.0000
     46 H8         -1.6650   -2.7650    2.3880 H         1    LIG28    0.0000
     47 H9         -0.3690    3.2670    0.2370 H         1    LIG28    0.0000
     48 H10        -2.5610    6.7490   -1.4010 H         1    LIG28    0.0000
     49 H11        -5.0190    1.4040   -0.8540 H         1    LIG28    0.0000
     50 H12        -6.7760    4.9110   -2.4230 H         1    LIG28    0.0000
     51 H13       -11.7420    3.2300   -3.7930 H         1    LIG28    0.0000
     52 H14       -11.3530    1.5480   -4.1780 H         1    LIG28    0.0000
     53 H15       -11.9470    1.9770   -2.5620 H         1    LIG28    0.0000
     54 H16       -10.5630    4.8650   -3.8040 H         1    LIG28    0.0000
     55 H17        -3.0530   -4.6700    2.2820 H         1    LIG28    0.0000
     56 H18        -3.9480   -5.0630    0.8020 H         1    LIG28    0.0000
     57 H19        -9.9450    6.8750   -2.6970 H         1    LIG28    0.0000
     58 H20       -10.1330    5.5990   -1.4780 H         1    LIG28    0.0000
     59 H21        -8.5120    6.1320   -1.9690 H         1    LIG28    0.0000
     60 H22        -9.0850    6.2410   -5.0490 H         1    LIG28    0.0000
     61 H23        -7.6480    5.5140   -4.3120 H         1    LIG28    0.0000
     62 H24        -8.6800    4.5460   -5.3860 H         1    LIG28    0.0000
     63 H25        -1.7720   -5.5040   -0.3620 H         1    LIG28    0.0000
     64 H26        -0.9420   -5.3030    1.2030 H         1    LIG28    0.0000
     65 H27         0.2650   -8.6070   -0.0590 H         1    LIG28    0.0000
     66 H28         0.0370   -6.9470   -0.1490 H         1    LIG28    0.0000
     67 H29        -1.3160   -9.9360    0.9790 H         1    LIG28    0.0000
     68 H30        -2.6930   -9.2410    1.6430 H         1    LIG28    0.0000
@<TRIPOS>BOND
     1    1    2 2
     2    1    6 1
     3    2    3 1
     4    2    7 1
     5    3    4 2
     6    3   10 1
     7    4    5 1
     8    4   39 1
     9    5    6 2
    10    5   40 1
    11    6   11 1
    12    7    8 1
    13    7   41 1
    14    7   42 1
    15    8    9 1
    16    8   43 1
    17    8   44 1
    18    9   10 1
    19    9   31 1
    20   10   45 1
    21   10   46 1
    22   11   12 1
    23   11   47 1
    24   12   13 2
    25   12   17 1
    26   13   14 1
    27   14   15 2
    28   14   19 1
    29   15   16 1
    30   15   18 1
    31   16   17 2
    32   16   48 1
    33   19   20 2
    34   19   24 1
    35   20   21 1
    36   20   49 1
    37   21   22 2
    38   21   25 1
    39   22   23 1
    40   22   26 1
    41   23   24 2
    42   23   28 1
    43   24   50 1
    44   26   27 2
    45   27   28 1
    46   27   29 1
    47   28   30 1
    48   29   51 1
    49   29   52 1
    50   29   53 1
    51   30   32 1
    52   30   33 1
    53   30   54 1
    54   31   34 1
    55   31   55 1
    56   31   56 1
    57   32   57 1
    58   32   58 1
    59   32   59 1
    60   33   60 1
    61   33   61 1
    62   33   62 1
    63   34   35 1
    64   34   63 1
    65   34   64 1
    66   35   36 2
    67   36   37 1
    68   36   38 1
    69   37   65 1
    70   37   66 1
    71   38   67 1
    72   38   68 1
@<TRIPOS>SUBSTRUCTURE
     1    LIG28    1   GROUP 1   LIG 1
@<TRIPOS>MOLECULE
1028501
   70    75    1     0     0
SMALL
USER_CHARGES


@<TRIPOS>ATOM
      1 N1         -1.6380    0.6650    0.6380 N.2       1    LIG29    0.0000
      2 C1         -1.6020   -0.6750    0.8410 C.2       1    LIG29    0.0000
      3 C2         -0.4360   -1.3930    0.5130 C.2       1    LIG29    0.0000
      4 C3          0.6730   -0.6770    0.0260 C.2       1    LIG29    0.0000
      5 C4          0.5990    0.7130   -0.1580 C.2       1    LIG29    0.0000
      6 C5         -0.5950    1.3870    0.1500 C.2       1    LIG29    0.0000
      7 C6         -2.7870   -1.3440    1.3980 C.3       1    LIG29    0.0000
      8 C7         -2.4960   -2.7830    1.8600 C.3       1    LIG29    0.0000
      9 N2         -1.7060   -3.4880    0.8330 N.3       1    LIG29    0.0000
     10 C8         -0.3720   -2.8580    0.6840 C.3       1    LIG29    0.0000
     11 N3         -0.6570    2.7280   -0.0480 N.pl3     1    LIG29    0.0000
     12 C9         -1.7280    3.5230    0.1800 C.2       1    LIG29    0.0000
     13 N4         -2.9160    3.0670    0.6430 N.2       1    LIG29    0.0000
     14 C10        -4.0180    3.8320    0.8770 C.2       1    LIG29    0.0000
     15 C11        -3.8850    5.2200    0.6090 C.2       1    LIG29    0.0000
     16 C12        -2.6520    5.6920    0.1300 C.2       1    LIG29    0.0000
     17 N5         -1.6170    4.8450   -0.0710 N.2       1    LIG29    0.0000
     18 F1         -4.8250    6.1080    0.7740 F         1    LIG29    0.0000
     19 C13        -5.1860    3.1480    1.3640 C.2       1    LIG29    0.0000
     20 C14        -5.1220    1.7420    1.5960 C.2       1    LIG29    0.0000
     21 C15        -6.2210    1.0010    2.0760 C.2       1    LIG29    0.0000
     22 C16        -7.4190    1.6820    2.3270 C.2       1    LIG29    0.0000
     23 C17        -7.5190    3.0480    2.1040 C.2       1    LIG29    0.0000
     24 C18        -6.4240    3.7910    1.6330 C.2       1    LIG29    0.0000
     25 F2         -6.1190   -0.2830    2.2780 F         1    LIG29    0.0000
     26 N6         -8.5960    1.2310    2.7840 N.2       1    LIG29    0.0000
     27 C19        -9.4100    2.3040    2.8400 C.2       1    LIG29    0.0000
     28 N7         -8.7700    3.4160    2.4160 N.pl3     1    LIG29    0.0000
     29 C20       -10.7920    2.2250    3.3170 C.3       1    LIG29    0.0000
     30 C21        -9.3120    4.7280    2.3210 C.3       1    LIG29    0.0000
     31 C22        -9.1240    5.4680    3.6530 C.3       1    LIG29    0.0000
     32 C23        -1.5900   -4.9210    1.1800 C.3       1    LIG29    0.0000
     33 C24        -0.9410   -5.7430    0.0520 C.3       1    LIG29    0.0000
     34 N8         -1.4890   -5.4020   -1.2790 N.3       1    LIG29    1.0000
     35 C25        -0.7230   -6.1060   -2.3230 C.3       1    LIG29    0.0000
     36 C26        -2.9140   -5.7670   -1.3860 C.3       1    LIG29    0.0000
     37 C27        -9.2200    5.5130    1.0050 C.3       1    LIG29    0.0000
     38 C28       -10.5710    4.9830    1.4830 C.3       1    LIG29    0.0000
     39 H1          1.5350   -1.1700   -0.2070 H         1    LIG29    0.0000
     40 H2          1.4050    1.2250   -0.5200 H         1    LIG29    0.0000
     41 H3         -3.1470   -0.7760    2.2560 H         1    LIG29    0.0000
     42 H4         -3.5670   -1.3600    0.6360 H         1    LIG29    0.0000
     43 H5         -3.4480   -3.2930    2.0180 H         1    LIG29    0.0000
     44 H6         -1.9470   -2.7610    2.8040 H         1    LIG29    0.0000
     45 H7          0.1040   -3.2850   -0.2000 H         1    LIG29    0.0000
     46 H8          0.2470   -3.0790    1.5550 H         1    LIG29    0.0000
     47 H9          0.1400    3.1610   -0.3890 H         1    LIG29    0.0000
     48 H10        -2.5270    6.6850   -0.0700 H         1    LIG29    0.0000
     49 H11        -4.2560    1.2330    1.4140 H         1    LIG29    0.0000
     50 H12        -6.5570    4.7880    1.4940 H         1    LIG29    0.0000
     51 H13       -11.2530    3.2120    3.3330 H         1    LIG29    0.0000
     52 H14       -11.3640    1.5710    2.6590 H         1    LIG29    0.0000
     53 H15       -10.7990    1.8150    4.3270 H         1    LIG29    0.0000
     54 H16        -9.5510    6.4680    3.5840 H         1    LIG29    0.0000
     55 H17        -9.6250    4.9190    4.4510 H         1    LIG29    0.0000
     56 H18        -8.0610    5.5480    3.8800 H         1    LIG29    0.0000
     57 H19        -1.0000   -5.0390    2.0910 H         1    LIG29    0.0000
     58 H20        -2.5850   -5.3270    1.3650 H         1    LIG29    0.0000
     59 H21         0.1300   -5.5410    0.0580 H         1    LIG29    0.0000
     60 H22        -1.0890   -6.8040    0.2570 H         1    LIG29    0.0000
     61 H23        -1.1070   -5.8340   -3.3080 H         1    LIG29    0.0000
     62 H24         0.3270   -5.8160   -2.2690 H         1    LIG29    0.0000
     63 H25        -0.8040   -7.1860   -2.1930 H         1    LIG29    0.0000
     64 H26        -3.2730   -5.5600   -2.3940 H         1    LIG29    0.0000
     65 H27        -3.0540   -6.8270   -1.1680 H         1    LIG29    0.0000
     66 H28        -3.5030   -5.1750   -0.6860 H         1    LIG29    0.0000
     67 H29        -9.0200    6.5840    1.0190 H         1    LIG29    0.0000
     68 H30        -8.7510    5.0710    0.1260 H         1    LIG29    0.0000
     69 H31       -11.3340    5.6760    1.8380 H         1    LIG29    0.0000
     70 H32       -11.0500    4.1630    0.9470 H         1    LIG29    0.0000
@<TRIPOS>BOND
     1    1    2 2
     2    1    6 1
     3    2    3 1
     4    2    7 1
     5    3    4 2
     6    3   10 1
     7    4    5 1
     8    4   39 1
     9    5    6 2
    10    5   40 1
    11    6   11 1
    12    7    8 1
    13    7   41 1
    14    7   42 1
    15    8    9 1
    16    8   43 1
    17    8   44 1
    18    9   10 1
    19    9   32 1
    20   10   45 1
    21   10   46 1
    22   11   12 1
    23   11   47 1
    24   12   13 2
    25   12   17 1
    26   13   14 1
    27   14   15 2
    28   14   19 1
    29   15   16 1
    30   15   18 1
    31   16   17 2
    32   16   48 1
    33   19   20 2
    34   19   24 1
    35   20   21 1
    36   20   49 1
    37   21   22 2
    38   21   25 1
    39   22   23 1
    40   22   26 1
    41   23   24 2
    42   23   28 1
    43   24   50 1
    44   26   27 2
    45   27   28 1
    46   27   29 1
    47   28   30 1
    48   29   51 1
    49   29   52 1
    50   29   53 1
    51   30   31 1
    52   30   37 1
    53   30   38 1
    54   31   54 1
    55   31   55 1
    56   31   56 1
    57   32   33 1
    58   32   57 1
    59   32   58 1
    60   33   34 1
    61   33   59 1
    62   33   60 1
    63   34   35 1
    64   34   36 1
    65   35   61 1
    66   35   62 1
    67   35   63 1
    68   36   64 1
    69   36   65 1
    70   36   66 1
    71   37   38 1
    72   37   67 1
    73   37   68 1
    74   38   69 1
    75   38   70 1
@<TRIPOS>SUBSTRUCTURE
     1    LIG29    1   GROUP 1   LIG 1
@<TRIPOS>MOLECULE
1174221
   69    74    1     0     0
SMALL
USER_CHARGES


@<TRIPOS>ATOM
      1 C1          4.9300   -5.0650    1.1040 C.2       1    LIG30    0.0000
      2 C2          3.8980   -5.5670    1.9450 C.2       1    LIG30    0.0000
      3 C3          3.5510   -4.8840    3.1180 C.2       1    LIG30    0.0000
      4 C4          4.1930   -3.7080    3.4970 C.2       1    LIG30    0.0000
      5 C5          5.2160   -3.1790    2.6980 C.2       1    LIG30    0.0000
      6 C6          5.5730   -3.8610    1.5150 C.2       1    LIG30    0.0000
      7 C7          5.2610   -5.7900   -0.0950 C.2       1    LIG30    0.0000
      8 C8          6.2500   -5.4510   -1.0550 C.2       1    LIG30    0.0000
      9 C9          6.4200   -6.2950   -2.1650 C.2       1    LIG30    0.0000
     10 N1          5.6600   -7.4030   -2.3140 N.2       1    LIG30    0.0000
     11 C10         4.7160   -7.7380   -1.4100 C.2       1    LIG30    0.0000
     12 N2          4.5500   -6.9260   -0.3390 N.2       1    LIG30    0.0000
     13 N3          3.9970   -8.8640   -1.6240 N.pl3     1    LIG30    0.0000
     14 F1          7.0270   -4.4060   -0.9960 F         1    LIG30    0.0000
     15 N4          2.6410   -5.1290    4.0650 N.pl3     1    LIG30    0.0000
     16 C11         2.7260   -4.1610    4.9630 C.2       1    LIG30    0.0000
     17 N5          3.6730   -3.2560    4.6570 N.2       1    LIG30    0.0000
     18 C12         1.6660   -6.1180    4.3220 C.3       1    LIG30    0.0000
     19 C13         1.0540   -5.6080    5.6610 C.3       1    LIG30    0.0000
     20 C14         1.7870   -4.3040    6.0580 C.3       1    LIG30    0.0000
     21 C15         0.6090   -6.1530    3.2040 C.3       1    LIG30    0.0000
     22 C16         2.3170   -7.5020    4.5020 C.3       1    LIG30    0.0000
     23 F2          5.8280   -2.0790    3.0370 F         1    LIG30    0.0000
     24 C17         3.0140   -9.3580   -0.8300 C.2       1    LIG30    0.0000
     25 N6          2.6100   -8.7540    0.3140 N.2       1    LIG30    0.0000
     26 C18         1.6330   -9.2450    1.1130 C.2       1    LIG30    0.0000
     27 C19         0.9550  -10.4460    0.7970 C.2       1    LIG30    0.0000
     28 C20         1.3720  -11.0870   -0.3930 C.2       1    LIG30    0.0000
     29 C21         2.3860  -10.5550   -1.2050 C.2       1    LIG30    0.0000
     30 C22        -0.0600  -10.9250    1.6850 C.2       1    LIG30    0.0000
     31 C23        -2.2000  -13.7890    0.6850 C.3       1    LIG30    0.0000
     32 N7         -2.0440  -15.1530    0.1290 N.3       1    LIG30    1.0000
     33 C24        -3.2070  -15.9930    0.4770 C.3       1    LIG30    0.0000
     34 C25        -1.9230  -15.0980   -1.3410 C.3       1    LIG30    0.0000
     35 C26        -0.9730  -12.9000    0.4350 C.3       1    LIG30    0.0000
     36 N8         -0.8790  -12.0230    1.5500 N.am      1    LIG30    0.0000
     37 C27        -1.7810  -12.3880    2.5910 C.3       1    LIG30    0.0000
     38 C28        -2.3080  -13.7710    2.2090 C.3       1    LIG30    0.0000
     39 O1         -0.2450  -10.2710    2.7400 O.2       1    LIG30    0.0000
     40 H1          3.3950   -6.4240    1.7150 H         1    LIG30    0.0000
     41 H2          6.3180   -3.4520    0.9590 H         1    LIG30    0.0000
     42 H3          7.1230   -6.0750   -2.8720 H         1    LIG30    0.0000
     43 H4          4.2110   -9.3670   -2.4240 H         1    LIG30    0.0000
     44 H5          1.1820   -6.3500    6.4500 H         1    LIG30    0.0000
     45 H6         -0.0110   -5.4030    5.5420 H         1    LIG30    0.0000
     46 H7          2.3140   -4.4190    7.0060 H         1    LIG30    0.0000
     47 H8          1.1010   -3.4580    6.0930 H         1    LIG30    0.0000
     48 H9         -0.1640   -6.8820    3.4500 H         1    LIG30    0.0000
     49 H10         0.1520   -5.1680    3.0970 H         1    LIG30    0.0000
     50 H11         1.0730   -6.4310    2.2580 H         1    LIG30    0.0000
     51 H12         1.5520   -8.2370    4.7540 H         1    LIG30    0.0000
     52 H13         2.8130   -7.8050    3.5800 H         1    LIG30    0.0000
     53 H14         3.0540   -7.4620    5.3040 H         1    LIG30    0.0000
     54 H15         1.3940   -8.7220    1.9560 H         1    LIG30    0.0000
     55 H16         0.9620  -11.9640   -0.6920 H         1    LIG30    0.0000
     56 H17         2.6660  -11.0420   -2.0580 H         1    LIG30    0.0000
     57 H18        -3.0830  -13.3020    0.2650 H         1    LIG30    0.0000
     58 H19        -3.0970  -16.9810    0.0280 H         1    LIG30    0.0000
     59 H20        -3.2710  -16.1150    1.5580 H         1    LIG30    0.0000
     60 H21        -4.1290  -15.5370    0.1130 H         1    LIG30    0.0000
     61 H22        -1.8280  -16.1080   -1.7400 H         1    LIG30    0.0000
     62 H23        -2.8020  -14.6220   -1.7780 H         1    LIG30    0.0000
     63 H24        -1.0340  -14.5340   -1.6230 H         1    LIG30    0.0000
     64 H25        -0.0750  -13.5170    0.3710 H         1    LIG30    0.0000
     65 H26        -1.1330  -12.3460   -0.4910 H         1    LIG30    0.0000
     66 H27        -1.2750  -12.4480    3.5570 H         1    LIG30    0.0000
     67 H28        -2.6000  -11.6690    2.6440 H         1    LIG30    0.0000
     68 H29        -1.6630  -14.5400    2.6370 H         1    LIG30    0.0000
     69 H30        -3.3370  -13.9100    2.5410 H         1    LIG30    0.0000
@<TRIPOS>BOND
     1    1    2 1
     2    1    6 2
     3    1    7 1
     4    2    3 2
     5    2   40 1
     6    3    4 1
     7    3   15 1
     8    4    5 2
     9    4   17 1
    10    5    6 1
    11    5   23 1
    12    6   41 1
    13    7    8 2
    14    7   12 1
    15    8    9 1
    16    8   14 1
    17    9   10 2
    18    9   42 1
    19   10   11 1
    20   11   12 2
    21   11   13 1
    22   13   24 1
    23   13   43 1
    24   15   16 1
    25   15   18 1
    26   16   17 2
    27   16   20 1
    28   18   19 1
    29   18   21 1
    30   18   22 1
    31   19   20 1
    32   19   44 1
    33   19   45 1
    34   20   46 1
    35   20   47 1
    36   21   48 1
    37   21   49 1
    38   21   50 1
    39   22   51 1
    40   22   52 1
    41   22   53 1
    42   24   25 2
    43   24   29 1
    44   25   26 1
    45   26   27 2
    46   26   54 1
    47   27   28 1
    48   27   30 1
    49   28   29 2
    50   28   55 1
    51   29   56 1
    52   30   36 1
    53   30   39 2
    54   31   32 1
    55   31   35 1
    56   31   38 1
    57   31   57 1
    58   32   33 1
    59   32   34 1
    60   33   58 1
    61   33   59 1
    62   33   60 1
    63   34   61 1
    64   34   62 1
    65   34   63 1
    66   35   36 1
    67   35   64 1
    68   35   65 1
    69   36   37 1
    70   37   38 1
    71   37   66 1
    72   37   67 1
    73   38   68 1
    74   38   69 1
@<TRIPOS>SUBSTRUCTURE
     1    LIG30    1   GROUP 1   LIG 1
