# Mol2 written by MVD (www.molegro.com)

@<TRIPOS>MOLECULE
51236875
   34    37    1     0     0
SMALL
USER_CHARGES


@<TRIPOS>ATOM
      1 C1          1.9430    3.9130   -0.5980 C.2       1     LIG1    0.0000
      2 C2          2.2440    3.7300    0.7620 C.2       1     LIG1    0.0000
      3 C3          3.2190    4.5390    1.3720 C.2       1     LIG1    0.0000
      4 C4          2.6410    4.9130   -1.2930 C.2       1     LIG1    0.0000
      5 C5          3.5600    6.3560   -2.6480 C.2       1     LIG1    0.0000
      6 N1          4.1200    6.5020   -1.4340 N.2       1     LIG1    0.0000
      7 N2          3.5680    5.6430   -0.6400 N.pl3     1     LIG1    0.0000
      8 N3          3.8530    5.4780    0.6250 N.2       1     LIG1    0.0000
      9 C6          2.5950    5.3490   -2.6170 C.2       1     LIG1    0.0000
     10 C7          1.7770    4.8980   -3.6820 C.2       1     LIG1    0.0000
     11 C8          1.8880    5.4150   -4.9890 C.2       1     LIG1    0.0000
     12 C9          1.0430    4.9000   -5.9800 C.2       1     LIG1    0.0000
     13 C10         0.0260    3.4490   -4.4180 C.2       1     LIG1    0.0000
     14 N4          0.8470    3.9360   -3.4530 N.2       1     LIG1    0.0000
     15 N5          0.1430    3.9380   -5.6730 N.2       1     LIG1    0.0000
     16 N6         -0.9030    2.4890   -4.1910 N.pl3     1     LIG1    0.0000
     17 C11        -1.1700    1.9100   -2.9940 C.2       1     LIG1    0.0000
     18 C12        -1.6890    2.0220   -0.6090 C.2       1     LIG1    0.0000
     19 C13        -1.3960    2.6640   -1.8240 C.2       1     LIG1    0.0000
     20 C14        -1.2730    0.5070   -2.9370 C.2       1     LIG1    0.0000
     21 C15        -1.7740    0.6200   -0.5540 C.2       1     LIG1    0.0000
     22 C16        -1.5680   -0.1400   -1.7240 C.2       1     LIG1    0.0000
     23 F1         -2.0460    0.0430    0.5850 F         1     LIG1    0.0000
     24 F2         -1.6480   -1.4430   -1.7020 F         1     LIG1    0.0000
     25 H1          1.2450    3.3300   -1.0560 H         1     LIG1    0.0000
     26 H2          1.7580    3.0140    1.3030 H         1     LIG1    0.0000
     27 H3          3.4500    4.4200    2.3590 H         1     LIG1    0.0000
     28 H4          3.8100    6.9130   -3.4650 H         1     LIG1    0.0000
     29 H5          2.5650    6.1410   -5.2260 H         1     LIG1    0.0000
     30 H6          1.1050    5.2510   -6.9370 H         1     LIG1    0.0000
     31 H7         -1.3930    2.1650   -4.9620 H         1     LIG1    0.0000
     32 H8         -1.8430    2.5790    0.2330 H         1     LIG1    0.0000
     33 H9         -1.3460    3.6830   -1.8530 H         1     LIG1    0.0000
     34 H10        -1.1270   -0.0460   -3.7830 H         1     LIG1    0.0000
@<TRIPOS>BOND
     1    1    2 2
     2    1    4 1
     3    1   25 1
     4    2    3 1
     5    2   26 1
     6    3    8 2
     7    3   27 1
     8    4    7 1
     9    4    9 2
    10    5    6 2
    11    5    9 1
    12    5   28 1
    13    6    7 1
    14    7    8 1
    15    9   10 1
    16   10   11 2
    17   10   14 1
    18   11   12 1
    19   11   29 1
    20   12   15 2
    21   12   30 1
    22   13   14 2
    23   13   15 1
    24   13   16 1
    25   16   17 1
    26   16   31 1
    27   17   19 2
    28   17   20 1
    29   18   19 1
    30   18   21 2
    31   18   32 1
    32   19   33 1
    33   20   22 2
    34   20   34 1
    35   21   22 1
    36   21   23 1
    37   22   24 1
@<TRIPOS>SUBSTRUCTURE
     1     LIG1    1   GROUP 1   LIG 1
@<TRIPOS>MOLECULE
1028264
   65    69    1     0     0
SMALL
USER_CHARGES


@<TRIPOS>ATOM
      1 N1          1.3970    0.8360   -1.4930 N.pl3     1     LIG2    0.0000
      2 C1          2.1420    1.1550   -0.4080 C.2       1     LIG2    0.0000
      3 N2          3.4710    0.9130   -0.3150 N.2       1     LIG2    0.0000
      4 C2          4.2570    1.2210    0.7510 C.2       1     LIG2    0.0000
      5 C3          3.6070    1.8460    1.8480 C.2       1     LIG2    0.0000
      6 C4          2.2290    2.1000    1.7490 C.2       1     LIG2    0.0000
      7 N3          1.5380    1.7550    0.6390 N.2       1     LIG2    0.0000
      8 F1          4.1900    2.2150    2.9540 F         1     LIG2    0.0000
      9 C5          5.6510    0.8820    0.6410 C.2       1     LIG2    0.0000
     10 C6          6.1260    0.2710   -0.5550 C.2       1     LIG2    0.0000
     11 C7          7.4750   -0.0870   -0.7380 C.2       1     LIG2    0.0000
     12 C8          8.3730    0.1730    0.3050 C.2       1     LIG2    0.0000
     13 C9          7.9570    0.7670    1.4880 C.2       1     LIG2    0.0000
     14 C10         6.6070    1.1230    1.6650 C.2       1     LIG2    0.0000
     15 F2          7.8700   -0.6440   -1.8490 F         1     LIG2    0.0000
     16 N4          9.6860   -0.0690    0.3810 N.2       1     LIG2    0.0000
     17 C11        10.0790    0.3680    1.5910 C.2       1     LIG2    0.0000
     18 N5          9.0370    0.8870    2.2900 N.pl3     1     LIG2    0.0000
     19 C12        11.4850    0.2460    1.9970 C.3       1     LIG2    0.0000
     20 C13         9.0820    1.4490    3.6120 C.3       1     LIG2    0.0000
     21 C14         8.6960    2.9390    3.6220 C.3       1     LIG2    0.0000
     22 C15         8.2230    0.6520    4.6100 C.3       1     LIG2    0.0000
     23 C16         1.8420    0.2190   -2.6170 C.2       1     LIG2    0.0000
     24 N6          3.1280   -0.1920   -2.7690 N.2       1     LIG2    0.0000
     25 C17         3.5990   -0.8100   -3.8790 C.2       1     LIG2    0.0000
     26 C18         2.7340   -1.0290   -4.9700 C.2       1     LIG2    0.0000
     27 C19         1.3890   -0.6360   -4.8410 C.2       1     LIG2    0.0000
     28 C20         0.9370   -0.0120   -3.6670 C.2       1     LIG2    0.0000
     29 C21         5.0070   -1.2370   -3.9180 C.3       1     LIG2    0.0000
     30 C22         5.3080   -2.1910   -5.0900 C.3       1     LIG2    0.0000
     31 N7          4.6600   -1.7060   -6.2700 N.am      1     LIG2    0.0000
     32 C23         3.2250   -1.6650   -6.2110 C.3       1     LIG2    0.0000
     33 C24         5.3490   -1.2750   -7.3720 C.2       1     LIG2    0.0000
     34 C25         6.8170   -1.2330   -7.4370 C.3       1     LIG2    0.0000
     35 O1          4.7250   -0.8840   -8.3850 O.2       1     LIG2    0.0000
     36 N8          7.3370   -0.2880   -6.4360 N.3       1     LIG2    0.0000
     37 C26         8.8030   -0.2420   -6.4880 C.3       1     LIG2    0.0000
     38 H1          0.4580    1.0750   -1.4610 H         1     LIG2    0.0000
     39 H2          1.7360    2.5510    2.5210 H         1     LIG2    0.0000
     40 H3          5.4800    0.0780   -1.3220 H         1     LIG2    0.0000
     41 H4          6.3420    1.5530    2.5420 H         1     LIG2    0.0000
     42 H5         11.6630    0.6350    2.9960 H         1     LIG2    0.0000
     43 H6         11.7690   -0.8060    1.9750 H         1     LIG2    0.0000
     44 H7         12.1070    0.7960    1.2910 H         1     LIG2    0.0000
     45 H8         10.0970    1.4070    4.0000 H         1     LIG2    0.0000
     46 H9          8.8880    3.3550    4.6120 H         1     LIG2    0.0000
     47 H10         9.3010    3.4760    2.8900 H         1     LIG2    0.0000
     48 H11         7.6430    3.0730    3.3840 H         1     LIG2    0.0000
     49 H12         8.4020    1.0250    5.6190 H         1     LIG2    0.0000
     50 H13         7.1640    0.7520    4.3830 H         1     LIG2    0.0000
     51 H14         8.5010   -0.4020    4.5680 H         1     LIG2    0.0000
     52 H15         0.7360   -0.7960   -5.6090 H         1     LIG2    0.0000
     53 H16        -0.0390    0.2770   -3.5840 H         1     LIG2    0.0000
     54 H17         5.2490   -1.7520   -2.9880 H         1     LIG2    0.0000
     55 H18         5.6390   -0.3520   -4.0020 H         1     LIG2    0.0000
     56 H19         6.3890   -2.2820   -5.1930 H         1     LIG2    0.0000
     57 H20         4.9120   -3.1810   -4.8550 H         1     LIG2    0.0000
     58 H21         2.8450   -2.6880   -6.2450 H         1     LIG2    0.0000
     59 H22         2.8100   -1.1240   -7.0650 H         1     LIG2    0.0000
     60 H23         7.2140   -2.2330   -7.2570 H         1     LIG2    0.0000
     61 H24         7.1270   -0.9070   -8.4310 H         1     LIG2    0.0000
     62 H25         6.9950    0.6400   -6.6970 H         1     LIG2    0.0000
     63 H26         9.1630    0.4780   -5.7530 H         1     LIG2    0.0000
     64 H27         9.2140   -1.2250   -6.2530 H         1     LIG2    0.0000
     65 H28         9.1340    0.0650   -7.4800 H         1     LIG2    0.0000
@<TRIPOS>BOND
     1    1    2 1
     2    1   23 1
     3    1   38 1
     4    2    3 2
     5    2    7 1
     6    3    4 1
     7    4    5 2
     8    4    9 1
     9    5    6 1
    10    5    8 1
    11    6    7 2
    12    6   39 1
    13    9   10 2
    14    9   14 1
    15   10   11 1
    16   10   40 1
    17   11   12 2
    18   11   15 1
    19   12   13 1
    20   12   16 1
    21   13   14 2
    22   13   18 1
    23   14   41 1
    24   16   17 2
    25   17   18 1
    26   17   19 1
    27   18   20 1
    28   19   42 1
    29   19   43 1
    30   19   44 1
    31   20   21 1
    32   20   22 1
    33   20   45 1
    34   21   46 1
    35   21   47 1
    36   21   48 1
    37   22   49 1
    38   22   50 1
    39   22   51 1
    40   23   24 2
    41   23   28 1
    42   24   25 1
    43   25   26 2
    44   25   29 1
    45   26   27 1
    46   26   32 1
    47   27   28 2
    48   27   52 1
    49   28   53 1
    50   29   30 1
    51   29   54 1
    52   29   55 1
    53   30   31 1
    54   30   56 1
    55   30   57 1
    56   31   32 1
    57   31   33 1
    58   32   58 1
    59   32   59 1
    60   33   34 1
    61   33   35 2
    62   34   36 1
    63   34   60 1
    64   34   61 1
    65   36   37 1
    66   36   62 1
    67   37   63 1
    68   37   64 1
    69   37   65 1
@<TRIPOS>SUBSTRUCTURE
     1     LIG2    1   GROUP 1   LIG 1
@<TRIPOS>MOLECULE
11305
   41    43    1     0     0
SMALL
USER_CHARGES


@<TRIPOS>ATOM
      1 C1          0.7690    2.0630    1.1460 C.2       1     LIG3    0.0000
      2 C2          0.6250    2.9900    0.1000 C.2       1     LIG3    0.0000
      3 C3         -0.6520    3.2320   -0.4350 C.2       1     LIG3    0.0000
      4 C4         -1.7710    2.5460    0.0680 C.2       1     LIG3    0.0000
      5 C5         -1.6390    1.6060    1.1100 C.2       1     LIG3    0.0000
      6 C6         -0.3510    1.3780    1.6470 C.2       1     LIG3    0.0000
      7 S1          2.0060    3.8450   -0.5160 S.3       1     LIG3    0.0000
      8 C7          2.1940    5.2240    0.6260 C.3       1     LIG3    0.0000
      9 O1          1.6520    4.5520   -1.8960 O.2       1     LIG3    0.0000
     10 N1          3.3740    2.9660   -0.2660 N.2       1     LIG3    0.0000
     11 N2         -2.7960    1.0010    1.5060 N.pl3     1     LIG3    0.0000
     12 C8         -3.0020    0.0400    2.4400 C.2       1     LIG3    0.0000
     13 N3         -4.2800   -0.3560    2.6400 N.2       1     LIG3    0.0000
     14 C9         -4.6070   -1.3070    3.5460 C.2       1     LIG3    0.0000
     15 C10        -3.6110   -1.9250    4.3180 C.2       1     LIG3    0.0000
     16 C11        -2.2780   -1.5180    4.1000 C.2       1     LIG3    0.0000
     17 N4         -2.0320   -0.5530    3.1760 N.2       1     LIG3    0.0000
     18 Br1        -4.0900   -3.2300    5.5620 Br        1     LIG3    0.0000
     19 N5         -1.2610   -2.0740    4.8150 N.pl3     1     LIG3    0.0000
     20 C12         0.0580   -1.7780    4.6920 C.2       1     LIG3    0.0000
     21 C13         2.1720   -1.2370    5.7870 C.2       1     LIG3    0.0000
     22 C14         0.7990   -1.5300    5.8630 C.2       1     LIG3    0.0000
     23 C15         0.7160   -1.7600    3.4430 C.2       1     LIG3    0.0000
     24 C16         2.0880   -1.4650    3.3670 C.2       1     LIG3    0.0000
     25 C17         2.8160   -1.2010    4.5390 C.2       1     LIG3    0.0000
     26 H1          1.6910    1.8870    1.5460 H         1     LIG3    0.0000
     27 H2         -0.7680    3.9080   -1.1910 H         1     LIG3    0.0000
     28 H3         -2.6900    2.7360   -0.3350 H         1     LIG3    0.0000
     29 H4         -0.2090    0.7230    2.4100 H         1     LIG3    0.0000
     30 H5          3.0500    5.8270    0.3240 H         1     LIG3    0.0000
     31 H6          1.2930    5.8380    0.6070 H         1     LIG3    0.0000
     32 H7          2.3550    4.8450    1.6350 H         1     LIG3    0.0000
     33 H8          4.0700    3.0080   -0.8890 H         1     LIG3    0.0000
     34 H9         -3.5980    1.2990    1.0500 H         1     LIG3    0.0000
     35 H10        -5.5880   -1.5680    3.6600 H         1     LIG3    0.0000
     36 H11        -1.5020   -2.7130    5.5030 H         1     LIG3    0.0000
     37 H12         2.7010   -1.0500    6.6400 H         1     LIG3    0.0000
     38 H13         0.3400   -1.5570    6.7740 H         1     LIG3    0.0000
     39 H14         0.1970   -1.9580    2.5870 H         1     LIG3    0.0000
     40 H15         2.5550   -1.4430    2.4600 H         1     LIG3    0.0000
     41 H16         3.8120   -0.9880    4.4840 H         1     LIG3    0.0000
@<TRIPOS>BOND
     1    1    2 2
     2    1    6 1
     3    1   26 1
     4    2    3 1
     5    2    7 1
     6    3    4 2
     7    3   27 1
     8    4    5 1
     9    4   28 1
    10    5    6 2
    11    5   11 1
    12    6   29 1
    13    7    8 1
    14    7    9 2
    15    7   10 2
    16    8   30 1
    17    8   31 1
    18    8   32 1
    19   10   33 1
    20   11   12 1
    21   11   34 1
    22   12   13 2
    23   12   17 1
    24   13   14 1
    25   14   15 2
    26   14   35 1
    27   15   16 1
    28   15   18 1
    29   16   17 2
    30   16   19 1
    31   19   20 1
    32   19   36 1
    33   20   22 2
    34   20   23 1
    35   21   22 1
    36   21   25 2
    37   21   37 1
    38   22   38 1
    39   23   24 2
    40   23   39 1
    41   24   25 1
    42   24   40 1
    43   25   41 1
@<TRIPOS>SUBSTRUCTURE
     1     LIG3    1   GROUP 1   LIG 1
@<TRIPOS>MOLECULE
169561
   54    57    1     0     0
SMALL
USER_CHARGES


@<TRIPOS>ATOM
      1 C1         -2.5260    4.6510    0.8730 C.2       1     LIG4    0.0000
      2 C2         -3.8950    4.4360    0.6140 C.2       1     LIG4    0.0000
      3 C3         -4.6240    3.4790    1.3540 C.2       1     LIG4    0.0000
      4 C4         -3.9940    2.7220    2.3630 C.2       1     LIG4    0.0000
      5 C5         -1.9120    3.8910    1.8830 C.2       1     LIG4    0.0000
      6 C6         -0.6070    3.8780    2.3610 C.2       1     LIG4    0.0000
      7 C7         -2.6310    2.9470    2.6100 C.2       1     LIG4    0.0000
      8 N1         -1.8090    2.3800    3.5010 N.pl3     1     LIG4    0.0000
      9 C8         -0.5780    2.9220    3.3880 C.2       1     LIG4    0.0000
     10 N2          0.3640    4.6310    1.8880 N.2       1     LIG4    0.0000
     11 C9          0.5870    2.5570    4.2230 C.3       1     LIG4    0.0000
     12 C10         0.4200    1.2700    4.9290 C.2       1     LIG4    0.0000
     13 N3          0.4620    1.4030    6.2650 N.am      1     LIG4    0.0000
     14 C11         0.6630    2.6830    6.5740 C.2       1     LIG4    0.0000
     15 C12         0.9860    4.8120    5.4570 C.2       1     LIG4    0.0000
     16 C13         0.7500    3.4270    5.3980 C.2       1     LIG4    0.0000
     17 C14         0.7940    3.2830    7.8350 C.2       1     LIG4    0.0000
     18 C15         1.0230    4.6720    7.8960 C.2       1     LIG4    0.0000
     19 C16         1.1170    5.4390    6.7130 C.2       1     LIG4    0.0000
     20 O1          0.2530    0.1710    4.3570 O.2       1     LIG4    0.0000
     21 S1          1.3940    7.1530    6.7860 S.o2      1     LIG4    0.0000
     22 O2          1.3790    7.6060    8.3100 O.2       1     LIG4    0.0000
     23 O3          2.6400    7.4060    5.8300 O.2       1     LIG4    0.0000
     24 N4          0.0640    7.8790    6.0360 N.pl3     1     LIG4    0.0000
     25 C17         0.1830    8.3170    4.6900 C.3       1     LIG4    0.0000
     26 C18        -1.1360    8.1010    6.7670 C.3       1     LIG4    0.0000
     27 C19        -2.3150    7.3030    6.1820 C.3       1     LIG4    0.0000
     28 N5         -2.0830    5.8450    6.2650 N.3       1     LIG4    1.0000
     29 C20        -2.3350    5.3430    7.6300 C.3       1     LIG4    0.0000
     30 C21        -2.9730    5.1420    5.3260 C.3       1     LIG4    0.0000
     31 O4          1.4650    4.6030    2.2730 O.2       1     LIG4    0.0000
     32 H1         -1.9970    5.3420    0.3400 H         1     LIG4    0.0000
     33 H2         -4.3630    4.9770   -0.1140 H         1     LIG4    0.0000
     34 H3         -5.6140    3.3330    1.1560 H         1     LIG4    0.0000
     35 H4         -4.5160    2.0300    2.9010 H         1     LIG4    0.0000
     36 H5         -2.0600    1.6890    4.1330 H         1     LIG4    0.0000
     37 H6          1.5000    2.5260    3.6270 H         1     LIG4    0.0000
     38 H7          0.3720    0.6770    6.9010 H         1     LIG4    0.0000
     39 H8          1.0580    5.3600    4.6020 H         1     LIG4    0.0000
     40 H9          0.7280    2.7280    8.6890 H         1     LIG4    0.0000
     41 H10         1.1180    5.1270    8.8040 H         1     LIG4    0.0000
     42 H11        -0.7220    8.8280    4.3620 H         1     LIG4    0.0000
     43 H12         1.0240    9.0060    4.6090 H         1     LIG4    0.0000
     44 H13         0.3610    7.4590    4.0420 H         1     LIG4    0.0000
     45 H14        -0.9940    7.8180    7.8090 H         1     LIG4    0.0000
     46 H15        -1.3770    9.1640    6.7340 H         1     LIG4    0.0000
     47 H16        -3.2280    7.5680    6.7190 H         1     LIG4    0.0000
     48 H17        -2.4400    7.5960    5.1390 H         1     LIG4    0.0000
     49 H18        -2.1580    4.2670    7.6620 H         1     LIG4    0.0000
     50 H19        -1.6620    5.8220    8.3400 H         1     LIG4    0.0000
     51 H20        -3.3660    5.5420    7.9260 H         1     LIG4    0.0000
     52 H21        -2.8050    4.0670    5.3960 H         1     LIG4    0.0000
     53 H22        -4.0180    5.3570    5.5540 H         1     LIG4    0.0000
     54 H23        -2.7560    5.4630    4.3060 H         1     LIG4    0.0000
@<TRIPOS>BOND
     1    1    2 1
     2    1    5 2
     3    1   32 1
     4    2    3 2
     5    2   33 1
     6    3    4 1
     7    3   34 1
     8    4    7 2
     9    4   35 1
    10    5    6 1
    11    5    7 1
    12    6    9 2
    13    6   10 1
    14    7    8 1
    15    8    9 1
    16    8   36 1
    17    9   11 1
    18   10   31 2
    19   11   12 1
    20   11   16 1
    21   11   37 1
    22   12   13 1
    23   12   20 2
    24   13   14 1
    25   13   38 1
    26   14   16 1
    27   14   17 2
    28   15   16 2
    29   15   19 1
    30   15   39 1
    31   17   18 1
    32   17   40 1
    33   18   19 2
    34   18   41 1
    35   19   21 1
    36   21   22 2
    37   21   23 2
    38   21   24 1
    39   24   25 1
    40   24   26 1
    41   25   42 1
    42   25   43 1
    43   25   44 1
    44   26   27 1
    45   26   45 1
    46   26   46 1
    47   27   28 1
    48   27   47 1
    49   27   48 1
    50   28   29 1
    51   28   30 1
    52   29   49 1
    53   29   50 1
    54   29   51 1
    55   30   52 1
    56   30   53 1
    57   30   54 1
@<TRIPOS>SUBSTRUCTURE
     1     LIG4    1   GROUP 1   LIG 1
@<TRIPOS>MOLECULE
51292373
   49    51    1     0     0
SMALL
USER_CHARGES


@<TRIPOS>ATOM
      1 C1         -2.8780    2.3340    0.6240 C.2       1     LIG5    0.0000
      2 C2         -3.0360    0.9540    0.6160 C.2       1     LIG5    0.0000
      3 C3         -0.9420    1.3860    0.4640 C.2       1     LIG5    0.0000
      4 O1         -1.5560    2.5900    0.5270 O.3       1     LIG5    0.0000
      5 N1         -1.8300    0.3800    0.5160 N.2       1     LIG5    0.0000
      6 C4         -3.9520    3.3480    0.7170 C.3       1     LIG5    0.0000
      7 C5         -4.7390    3.1780    2.0330 C.3       1     LIG5    0.0000
      8 C6         -3.3520    4.7700    0.6910 C.3       1     LIG5    0.0000
      9 C7         -4.9230    3.2120   -0.4740 C.3       1     LIG5    0.0000
     10 C8          0.5040    1.2130    0.3470 C.3       1     LIG5    0.0000
     11 S1          1.3140    1.9510    1.7780 S.3       1     LIG5    0.0000
     12 C9          2.9920    1.6830    1.4450 C.2       1     LIG5    0.0000
     13 C10         5.1760    1.1560    0.6530 C.2       1     LIG5    0.0000
     14 C11         4.0060    2.0620    2.3110 C.2       1     LIG5    0.0000
     15 S2          3.5820    0.9210    0.0080 S.3       1     LIG5    0.0000
     16 N2          5.2250    1.7580    1.8510 N.2       1     LIG5    0.0000
     17 N3          6.3170    0.7800    0.0400 N.am      1     LIG5    0.0000
     18 C12         6.3960    0.1730   -1.1660 C.2       1     LIG5    0.0000
     19 O2          5.3850   -0.1020   -1.8510 O.2       1     LIG5    0.0000
     20 C13         7.7220   -0.1790   -1.7010 C.3       1     LIG5    0.0000
     21 C14         8.6000    1.0740   -1.8880 C.3       1     LIG5    0.0000
     22 C15         8.4470   -1.1790   -0.7790 C.3       1     LIG5    0.0000
     23 C16         9.8360   -1.5000   -1.3510 C.3       1     LIG5    0.0000
     24 C17         9.9820    0.6660   -2.4170 C.3       1     LIG5    0.0000
     25 N4         10.6300   -0.2690   -1.4840 N.3       1     LIG5    0.0000
     26 H1         -3.9250    0.4570    0.6750 H         1     LIG5    0.0000
     27 H2         -5.5090    3.9470    2.1020 H         1     LIG5    0.0000
     28 H3         -5.2190    2.1990    2.0650 H         1     LIG5    0.0000
     29 H4         -4.0670    3.2750    2.8880 H         1     LIG5    0.0000
     30 H5         -4.1520    5.5090    0.7530 H         1     LIG5    0.0000
     31 H6         -2.6770    4.9100    1.5370 H         1     LIG5    0.0000
     32 H7         -2.7990    4.9290   -0.2360 H         1     LIG5    0.0000
     33 H8         -5.6890    3.9860   -0.4140 H         1     LIG5    0.0000
     34 H9         -4.3830    3.3250   -1.4150 H         1     LIG5    0.0000
     35 H10        -5.4110    2.2360   -0.4570 H         1     LIG5    0.0000
     36 H11         0.7450    0.1500    0.3000 H         1     LIG5    0.0000
     37 H12         0.8500    1.7030   -0.5630 H         1     LIG5    0.0000
     38 H13         3.8400    2.5250    3.2050 H         1     LIG5    0.0000
     39 H14         7.1500    0.9610    0.5020 H         1     LIG5    0.0000
     40 H15         7.5890   -0.6500   -2.6770 H         1     LIG5    0.0000
     41 H16         8.7260    1.5920   -0.9350 H         1     LIG5    0.0000
     42 H17         8.1300    1.7520   -2.6030 H         1     LIG5    0.0000
     43 H18         7.8690   -2.1020   -0.7070 H         1     LIG5    0.0000
     44 H19         8.5670   -0.7530    0.2190 H         1     LIG5    0.0000
     45 H20        10.3500   -2.1820   -0.6740 H         1     LIG5    0.0000
     46 H21         9.7300   -1.9820   -2.3240 H         1     LIG5    0.0000
     47 H22         9.8770    0.1990   -3.3980 H         1     LIG5    0.0000
     48 H23        10.6030    1.5560   -2.5150 H         1     LIG5    0.0000
     49 H24        11.5250   -0.5350   -1.9000 H         1     LIG5    0.0000
@<TRIPOS>BOND
     1    1    2 2
     2    1    4 1
     3    1    6 1
     4    2    5 1
     5    2   26 1
     6    3    4 1
     7    3    5 2
     8    3   10 1
     9    6    7 1
    10    6    8 1
    11    6    9 1
    12    7   27 1
    13    7   28 1
    14    7   29 1
    15    8   30 1
    16    8   31 1
    17    8   32 1
    18    9   33 1
    19    9   34 1
    20    9   35 1
    21   10   11 1
    22   10   36 1
    23   10   37 1
    24   11   12 1
    25   12   14 2
    26   12   15 1
    27   13   15 1
    28   13   16 2
    29   13   17 1
    30   14   16 1
    31   14   38 1
    32   17   18 1
    33   17   39 1
    34   18   19 2
    35   18   20 1
    36   20   21 1
    37   20   22 1
    38   20   40 1
    39   21   24 1
    40   21   41 1
    41   21   42 1
    42   22   23 1
    43   22   43 1
    44   22   44 1
    45   23   25 1
    46   23   45 1
    47   23   46 1
    48   24   25 1
    49   24   47 1
    50   24   48 1
    51   25   49 1
@<TRIPOS>SUBSTRUCTURE
     1     LIG5    1   GROUP 1   LIG 1
@<TRIPOS>MOLECULE
906820
   69    73    1     0     0
SMALL
USER_CHARGES


@<TRIPOS>ATOM
      1 C1          7.9650    1.5560    0.3200 C.2       1     LIG6    0.0000
      2 C2          7.1140    0.9850   -0.6650 C.2       1     LIG6    0.0000
      3 N1          7.7220    0.2150   -1.6100 N.2       1     LIG6    0.0000
      4 C3          9.0530   -0.0350   -1.6770 C.2       1     LIG6    0.0000
      5 N2          9.8480    0.5150   -0.7360 N.2       1     LIG6    0.0000
      6 C4          9.3430    1.2920    0.2470 C.2       1     LIG6    0.0000
      7 N3          9.6370   -0.8070   -2.6220 N.pl3     1     LIG6    0.0000
      8 C5          3.5830    0.5090   -1.8890 C.2       1     LIG6    0.0000
      9 N4          2.7000   -0.0550   -2.7380 N.pl3     1     LIG6    0.0000
     10 C6          1.4770    0.3750   -2.3480 C.2       1     LIG6    0.0000
     11 N5          1.5580    1.1960   -1.2850 N.2       1     LIG6    0.0000
     12 C7          2.8620    1.2870   -0.9940 C.2       1     LIG6    0.0000
     13 C8          3.5020    2.0130    0.0190 C.2       1     LIG6    0.0000
     14 C9          4.9040    1.9240    0.1240 C.2       1     LIG6    0.0000
     15 C10         5.6830    1.1250   -0.7600 C.2       1     LIG6    0.0000
     16 C11         4.9840    0.4270   -1.7860 C.2       1     LIG6    0.0000
     17 C12         2.9560   -0.9360   -3.8410 C.3       1     LIG6    0.0000
     18 C13         3.7920   -0.2480   -4.9340 C.3       1     LIG6    0.0000
     19 C14         3.6060   -2.2540   -3.3880 C.3       1     LIG6    0.0000
     20 C15         0.2040    0.0130   -2.9740 C.3       1     LIG6    0.0000
     21 F1          2.8190    2.7510    0.8490 F         1     LIG6    0.0000
     22 F2          7.5730    2.3040    1.3120 F         1     LIG6    0.0000
     23 N6          7.6680   -1.3810   -3.8340 N.2       1     LIG6    0.0000
     24 C16         9.0100   -1.4540   -3.6330 C.2       1     LIG6    0.0000
     25 C17         9.7800   -2.2400   -4.5070 C.2       1     LIG6    0.0000
     26 C18         9.1440   -2.9340   -5.5490 C.2       1     LIG6    0.0000
     27 C19         7.7510   -2.8390   -5.7240 C.2       1     LIG6    0.0000
     28 C20         7.0260   -2.0310   -4.8330 C.2       1     LIG6    0.0000
     29 C21         7.0500   -3.5630   -6.7980 C.3       1     LIG6    0.0000
     30 C22         6.5250   -5.6050   -5.5510 C.3       1     LIG6    0.0000
     31 C23         5.3800   -6.4510   -4.9750 C.3       1     LIG6    0.0000
     32 N7          4.4880   -6.9090   -6.0610 N.3       1     LIG6    0.0000
     33 C24         3.9560   -5.7340   -6.7820 C.3       1     LIG6    0.0000
     34 C25         5.1070   -4.8940   -7.3540 C.3       1     LIG6    0.0000
     35 N8          5.9770   -4.4280   -6.2580 N.3       1     LIG6    0.0000
     36 C26         3.3630   -7.7060   -5.5280 C.3       1     LIG6    0.0000
     37 C27         3.8260   -9.0710   -5.0000 C.3       1     LIG6    0.0000
     38 H1          9.9770    1.6850    0.9440 H         1     LIG6    0.0000
     39 H2         10.5980   -0.9090   -2.5610 H         1     LIG6    0.0000
     40 H3          5.3400    2.4680    0.8630 H         1     LIG6    0.0000
     41 H4          5.4900   -0.1540   -2.4530 H         1     LIG6    0.0000
     42 H5          2.0130   -1.2120   -4.3140 H         1     LIG6    0.0000
     43 H6          3.8910   -0.9160   -5.7890 H         1     LIG6    0.0000
     44 H7          3.2900    0.6650   -5.2550 H         1     LIG6    0.0000
     45 H8          4.7850    0.0020   -4.5630 H         1     LIG6    0.0000
     46 H9          3.6710   -2.9390   -4.2340 H         1     LIG6    0.0000
     47 H10         4.6060   -2.0800   -2.9980 H         1     LIG6    0.0000
     48 H11         2.9940   -2.7100   -2.6090 H         1     LIG6    0.0000
     49 H12        -0.6200    0.4910   -2.4440 H         1     LIG6    0.0000
     50 H13         0.2020    0.3460   -4.0110 H         1     LIG6    0.0000
     51 H14         0.0740   -1.0690   -2.9370 H         1     LIG6    0.0000
     52 H15        10.7900   -2.3150   -4.3850 H         1     LIG6    0.0000
     53 H16         9.6990   -3.5100   -6.1820 H         1     LIG6    0.0000
     54 H17         6.0150   -1.9420   -4.9290 H         1     LIG6    0.0000
     55 H18         6.6060   -2.8180   -7.4600 H         1     LIG6    0.0000
     56 H19         7.7480   -4.1650   -7.3830 H         1     LIG6    0.0000
     57 H20         7.1140   -6.2170   -6.2370 H         1     LIG6    0.0000
     58 H21         7.1620   -5.2860   -4.7260 H         1     LIG6    0.0000
     59 H22         4.8210   -5.8520   -4.2530 H         1     LIG6    0.0000
     60 H23         5.8170   -7.3090   -4.4660 H         1     LIG6    0.0000
     61 H24         3.3250   -6.0640   -7.6080 H         1     LIG6    0.0000
     62 H25         3.3610   -5.1130   -6.1080 H         1     LIG6    0.0000
     63 H26         5.6790   -5.4990   -8.0610 H         1     LIG6    0.0000
     64 H27         4.6840   -4.0360   -7.8790 H         1     LIG6    0.0000
     65 H28         2.8580   -7.1620   -4.7270 H         1     LIG6    0.0000
     66 H29         2.6450   -7.8910   -6.3290 H         1     LIG6    0.0000
     67 H30         2.9520   -9.6780   -4.7640 H         1     LIG6    0.0000
     68 H31         4.4190   -9.5780   -5.7620 H         1     LIG6    0.0000
     69 H32         4.4220   -8.9460   -4.0970 H         1     LIG6    0.0000
@<TRIPOS>BOND
     1    1    2 2
     2    1    6 1
     3    1   22 1
     4    2    3 1
     5    2   15 1
     6    3    4 2
     7    4    5 1
     8    4    7 1
     9    5    6 2
    10    6   38 1
    11    7   24 1
    12    7   39 1
    13    8    9 1
    14    8   12 1
    15    8   16 2
    16    9   10 1
    17    9   17 1
    18   10   11 2
    19   10   20 1
    20   11   12 1
    21   12   13 2
    22   13   14 1
    23   13   21 1
    24   14   15 2
    25   14   40 1
    26   15   16 1
    27   16   41 1
    28   17   18 1
    29   17   19 1
    30   17   42 1
    31   18   43 1
    32   18   44 1
    33   18   45 1
    34   19   46 1
    35   19   47 1
    36   19   48 1
    37   20   49 1
    38   20   50 1
    39   20   51 1
    40   23   24 2
    41   23   28 1
    42   24   25 1
    43   25   26 2
    44   25   52 1
    45   26   27 1
    46   26   53 1
    47   27   28 2
    48   27   29 1
    49   28   54 1
    50   29   35 1
    51   29   55 1
    52   29   56 1
    53   30   31 1
    54   30   35 1
    55   30   57 1
    56   30   58 1
    57   31   32 1
    58   31   59 1
    59   31   60 1
    60   32   33 1
    61   32   36 1
    62   33   34 1
    63   33   61 1
    64   33   62 1
    65   34   35 1
    66   34   63 1
    67   34   64 1
    68   36   37 1
    69   36   65 1
    70   36   66 1
    71   37   67 1
    72   37   68 1
    73   37   69 1
@<TRIPOS>SUBSTRUCTURE
     1     LIG6    1   GROUP 1   LIG 1
@<TRIPOS>MOLECULE
907201
   94    99    1     0     0
SMALL
USER_CHARGES


@<TRIPOS>ATOM
      1 N1         -2.5470    0.4600    0.4920 N.2       1     LIG7    0.0000
      2 C1         -2.5470   -0.8880    0.6000 C.2       1     LIG7    0.0000
      3 C2         -1.3410   -1.5570    0.8780 C.2       1     LIG7    0.0000
      4 C3         -0.1930   -0.7820    1.1320 C.2       1     LIG7    0.0000
      5 C4         -0.2470    0.6210    1.0570 C.2       1     LIG7    0.0000
      6 C5         -1.4540    1.2420    0.6900 C.2       1     LIG7    0.0000
      7 C6         -3.8160   -1.6100    0.4340 C.3       1     LIG7    0.0000
      8 C7         -3.7020   -3.1220    0.6970 C.3       1     LIG7    0.0000
      9 N2         -2.4260   -3.6440    0.1600 N.3       1     LIG7    0.0000
     10 C8         -1.2970   -3.0300    0.9030 C.3       1     LIG7    0.0000
     11 N3         -1.5200    2.5940    0.5900 N.pl3     1     LIG7    0.0000
     12 C9         -2.5590    3.2830    0.0590 C.2       1     LIG7    0.0000
     13 N4         -3.5280    2.6840   -0.6710 N.2       1     LIG7    0.0000
     14 C10        -4.5960    3.3140   -1.2260 C.2       1     LIG7    0.0000
     15 C11        -4.6950    4.7100   -1.0000 C.2       1     LIG7    0.0000
     16 C12        -3.6700    5.3370   -0.2700 C.2       1     LIG7    0.0000
     17 N5         -2.6350    4.6210    0.2290 N.2       1     LIG7    0.0000
     18 F1         -5.6350    5.4710   -1.4880 F         1     LIG7    0.0000
     19 C13        -5.4940    2.5000   -1.9930 C.2       1     LIG7    0.0000
     20 C14        -6.8170    2.8970   -2.3140 C.2       1     LIG7    0.0000
     21 C15        -7.6760    2.0660   -3.0540 C.2       1     LIG7    0.0000
     22 C16        -7.1830    0.8350   -3.5070 C.2       1     LIG7    0.0000
     23 C17        -5.8830    0.4060   -3.2560 C.2       1     LIG7    0.0000
     24 C18        -5.0540    1.2320   -2.4660 C.2       1     LIG7    0.0000
     25 F2         -8.8990    2.4370   -3.3110 F         1     LIG7    0.0000
     26 N6         -7.8180   -0.0950   -4.2160 N.2       1     LIG7    0.0000
     27 C19        -6.9290   -1.0780   -4.4240 C.2       1     LIG7    0.0000
     28 N7         -5.7090   -0.7940   -3.8780 N.pl3     1     LIG7    0.0000
     29 C20        -7.3920   -2.2480   -5.1810 C.3       1     LIG7    0.0000
     30 C21        -4.5070   -1.6090   -4.0210 C.3       1     LIG7    0.0000
     31 C22        -2.3440   -5.1180    0.2560 C.3       1     LIG7    0.0000
     32 C23        -3.0800   -5.8190   -0.9010 C.3       1     LIG7    0.0000
     33 N8         -4.5480   -5.7430   -0.7930 N.3       1     LIG7    0.0000
     34 C24        -5.2050   -6.4010   -1.9300 C.3       1     LIG7    0.0000
     35 C25        -4.6580   -2.9620   -3.2860 C.3       1     LIG7    0.0000
     36 C26        -4.1770   -1.8290   -5.5190 C.3       1     LIG7    0.0000
     37 C27        -3.1980   -0.9970   -3.4690 C.3       1     LIG7    0.0000
     38 C28        -5.0710   -6.4660    0.3750 C.3       1     LIG7    0.0000
     39 C29        -6.5510   -6.7050    0.0610 C.3       1     LIG7    0.0000
     40 O1         -7.1170   -4.0400   -1.1780 O.3       1     LIG7    0.0000
     41 C30        -6.6520   -6.6030   -1.4690 C.3       1     LIG7    0.0000
     42 O2         -8.9610   -5.5850   -1.5240 O.2       1     LIG7    0.0000
     43 P1         -7.6000   -5.3120   -1.9100 P.3       1     LIG7    0.0000
     44 O3         -7.5480   -5.0400   -3.4320 O.3       1     LIG7    0.0000
     45 C31        -7.9700   -6.0850   -4.3030 C.3       1     LIG7    0.0000
     46 C32        -8.0090   -5.5660   -5.7430 C.3       1     LIG7    0.0000
     47 C33        -7.9490   -2.8930   -1.3070 C.3       1     LIG7    0.0000
     48 C34        -7.2870   -1.6990   -0.6150 C.3       1     LIG7    0.0000
     49 O4         -7.1870   -7.8120   -1.9970 O.3       1     LIG7    0.0000
     50 H1          0.6890   -1.2400    1.3620 H         1     LIG7    0.0000
     51 H2          0.5890    1.1770    1.2400 H         1     LIG7    0.0000
     52 H3         -4.5520   -1.1950    1.1220 H         1     LIG7    0.0000
     53 H4         -4.1710   -1.4520   -0.5800 H         1     LIG7    0.0000
     54 H5         -4.5540   -3.6010    0.2180 H         1     LIG7    0.0000
     55 H6         -3.7560   -3.3090    1.7710 H         1     LIG7    0.0000
     56 H7         -0.3670   -3.3590    0.4360 H         1     LIG7    0.0000
     57 H8         -1.3030   -3.3660    1.9430 H         1     LIG7    0.0000
     58 H9         -0.7730    3.1090    0.9320 H         1     LIG7    0.0000
     59 H10        -3.6970    6.3460   -0.1160 H         1     LIG7    0.0000
     60 H11        -7.1930    3.7820   -1.9760 H         1     LIG7    0.0000
     61 H12        -4.1120    0.9310   -2.2420 H         1     LIG7    0.0000
     62 H13        -6.6640   -3.0460   -5.2190 H         1     LIG7    0.0000
     63 H14        -8.2950   -2.6350   -4.7090 H         1     LIG7    0.0000
     64 H15        -7.6320   -1.9400   -6.1990 H         1     LIG7    0.0000
     65 H16        -1.2980   -5.4200    0.1830 H         1     LIG7    0.0000
     66 H17        -2.7260   -5.4630    1.2170 H         1     LIG7    0.0000
     67 H18        -2.7680   -5.3520   -1.8370 H         1     LIG7    0.0000
     68 H19        -2.7710   -6.8660   -0.9210 H         1     LIG7    0.0000
     69 H20        -4.7460   -7.3720   -2.1280 H         1     LIG7    0.0000
     70 H21        -5.1540   -5.7810   -2.8250 H         1     LIG7    0.0000
     71 H22        -3.7540   -3.5590   -3.4170 H         1     LIG7    0.0000
     72 H23        -4.8090   -2.7900   -2.2220 H         1     LIG7    0.0000
     73 H24        -5.5000   -3.5340   -3.6580 H         1     LIG7    0.0000
     74 H25        -3.2580   -2.4080   -5.6190 H         1     LIG7    0.0000
     75 H26        -4.9600   -2.3620   -6.0440 H         1     LIG7    0.0000
     76 H27        -4.0350   -0.8610   -6.0020 H         1     LIG7    0.0000
     77 H28        -2.3510   -1.6360   -3.7220 H         1     LIG7    0.0000
     78 H29        -3.0260   -0.0140   -3.9080 H         1     LIG7    0.0000
     79 H30        -3.2330   -0.9220   -2.3860 H         1     LIG7    0.0000
     80 H31        -4.5660   -7.4260    0.4920 H         1     LIG7    0.0000
     81 H32        -4.9630   -5.8740    1.2840 H         1     LIG7    0.0000
     82 H33        -6.8560   -7.6910    0.4140 H         1     LIG7    0.0000
     83 H34        -7.1610   -5.9380    0.5390 H         1     LIG7    0.0000
     84 H35        -7.2680   -6.9170   -4.2490 H         1     LIG7    0.0000
     85 H36        -8.9650   -6.4260   -4.0160 H         1     LIG7    0.0000
     86 H37        -8.3240   -6.3690   -6.4090 H         1     LIG7    0.0000
     87 H38        -8.7160   -4.7400   -5.8160 H         1     LIG7    0.0000
     88 H39        -7.0160   -5.2240   -6.0350 H         1     LIG7    0.0000
     89 H40        -8.0980   -2.6630   -2.3610 H         1     LIG7    0.0000
     90 H41        -8.9150   -3.0890   -0.8420 H         1     LIG7    0.0000
     91 H42        -7.9400   -0.8290   -0.6860 H         1     LIG7    0.0000
     92 H43        -7.1080   -1.9350    0.4340 H         1     LIG7    0.0000
     93 H44        -6.3410   -1.4770   -1.1030 H         1     LIG7    0.0000
     94 H45        -8.1260   -7.9600   -1.7540 H         1     LIG7    0.0000
@<TRIPOS>BOND
     1    1    2 2
     2    1    6 1
     3    2    3 1
     4    2    7 1
     5    3    4 2
     6    3   10 1
     7    4    5 1
     8    4   50 1
     9    5    6 2
    10    5   51 1
    11    6   11 1
    12    7    8 1
    13    7   52 1
    14    7   53 1
    15    8    9 1
    16    8   54 1
    17    8   55 1
    18    9   10 1
    19    9   31 1
    20   10   56 1
    21   10   57 1
    22   11   12 1
    23   11   58 1
    24   12   13 2
    25   12   17 1
    26   13   14 1
    27   14   15 2
    28   14   19 1
    29   15   16 1
    30   15   18 1
    31   16   17 2
    32   16   59 1
    33   19   20 2
    34   19   24 1
    35   20   21 1
    36   20   60 1
    37   21   22 2
    38   21   25 1
    39   22   23 1
    40   22   26 1
    41   23   24 2
    42   23   28 1
    43   24   61 1
    44   26   27 2
    45   27   28 1
    46   27   29 1
    47   28   30 1
    48   29   62 1
    49   29   63 1
    50   29   64 1
    51   30   35 1
    52   30   36 1
    53   30   37 1
    54   31   32 1
    55   31   65 1
    56   31   66 1
    57   32   33 1
    58   32   67 1
    59   32   68 1
    60   33   34 1
    61   33   38 1
    62   34   41 1
    63   34   69 1
    64   34   70 1
    65   35   71 1
    66   35   72 1
    67   35   73 1
    68   36   74 1
    69   36   75 1
    70   36   76 1
    71   37   77 1
    72   37   78 1
    73   37   79 1
    74   38   39 1
    75   38   80 1
    76   38   81 1
    77   39   41 1
    78   39   82 1
    79   39   83 1
    80   40   43 1
    81   40   47 1
    82   41   43 1
    83   41   49 1
    84   42   43 2
    85   43   44 1
    86   44   45 1
    87   45   46 1
    88   45   84 1
    89   45   85 1
    90   46   86 1
    91   46   87 1
    92   46   88 1
    93   47   48 1
    94   47   89 1
    95   47   90 1
    96   48   91 1
    97   48   92 1
    98   48   93 1
    99   49   94 1
@<TRIPOS>SUBSTRUCTURE
     1     LIG7    1   GROUP 1   LIG 1
@<TRIPOS>MOLECULE
907135
   74    79    1     0     0
SMALL
USER_CHARGES


@<TRIPOS>ATOM
      1 N1         -1.8790    1.6090    0.6960 N.2       1     LIG8    0.0000
      2 C1         -1.9750    0.3600    1.2150 C.2       1     LIG8    0.0000
      3 C2         -0.9990   -0.6010    0.8880 C.2       1     LIG8    0.0000
      4 C3          0.0690   -0.2120    0.0590 C.2       1     LIG8    0.0000
      5 C4          0.1370    1.0940   -0.4510 C.2       1     LIG8    0.0000
      6 C5         -0.8720    2.0160   -0.1210 C.2       1     LIG8    0.0000
      7 C6         -3.0980    0.0400    2.1080 C.3       1     LIG8    0.0000
      8 C7         -2.8890   -1.2780    2.8760 C.3       1     LIG8    0.0000
      9 N2         -2.4140   -2.3310    1.9560 N.3       1     LIG8    0.0000
     10 C8         -1.0800   -1.9790    1.4110 C.3       1     LIG8    0.0000
     11 N3         -0.7920    3.2720   -0.6260 N.pl3     1     LIG8    0.0000
     12 C9         -1.6690    4.2810   -0.4160 C.2       1     LIG8    0.0000
     13 N4         -2.7870    4.1610    0.3380 N.2       1     LIG8    0.0000
     14 C10        -3.6890    5.1540    0.5740 C.2       1     LIG8    0.0000
     15 C11        -3.4120    6.4080   -0.0330 C.2       1     LIG8    0.0000
     16 C12        -2.2520    6.5290   -0.8160 C.2       1     LIG8    0.0000
     17 N5         -1.4190    5.4770   -0.9880 N.2       1     LIG8    0.0000
     18 F1         -4.1550    7.4750    0.0680 F         1     LIG8    0.0000
     19 C13        -4.8140    4.8180    1.4080 C.2       1     LIG8    0.0000
     20 C14        -4.9410    3.4880    1.8950 C.2       1     LIG8    0.0000
     21 C15        -6.0110    3.0890    2.7140 C.2       1     LIG8    0.0000
     22 C16        -6.9750    4.0470    3.0510 C.2       1     LIG8    0.0000
     23 C17        -6.9100    5.3660    2.6100 C.2       1     LIG8    0.0000
     24 C18        -5.8250    5.7420    1.7870 C.2       1     LIG8    0.0000
     25 F2         -6.0950    1.8610    3.1420 F         1     LIG8    0.0000
     26 N6         -8.0590    3.8920    3.8060 N.2       1     LIG8    0.0000
     27 C19        -8.6650    5.0880    3.8420 C.2       1     LIG8    0.0000
     28 N7         -7.9870    6.0280    3.1170 N.pl3     1     LIG8    0.0000
     29 C20        -9.9060    5.1870    4.6230 C.3       1     LIG8    0.0000
     30 C21        -8.3840    7.4230    2.9620 C.3       1     LIG8    0.0000
     31 C22        -2.3800   -3.6290    2.6650 C.3       1     LIG8    0.0000
     32 C23        -2.1000   -4.8120    1.7220 C.3       1     LIG8    0.0000
     33 O1         -2.1830   -6.0250    2.4680 O.3       1     LIG8    0.0000
     34 C24        -2.0010   -7.2240    1.7180 C.3       1     LIG8    0.0000
     35 C25        -9.7570    7.5240    2.2560 C.3       1     LIG8    0.0000
     36 C26        -8.3960    8.1410    4.3330 C.3       1     LIG8    0.0000
     37 C27        -7.4630    8.3110    2.0940 C.3       1     LIG8    0.0000
     38 C28        -3.1220   -4.8570    0.5710 C.3       1     LIG8    0.0000
     39 N8         -2.9120   -6.0560   -0.2550 N.3       1     LIG8    0.0000
     40 C29        -3.0230   -7.2670    0.5730 C.3       1     LIG8    0.0000
     41 H1          0.7970   -0.8850   -0.1830 H         1     LIG8    0.0000
     42 H2          0.9110    1.3670   -1.0570 H         1     LIG8    0.0000
     43 H3         -3.2160    0.8440    2.8350 H         1     LIG8    0.0000
     44 H4         -4.0090   -0.0290    1.5120 H         1     LIG8    0.0000
     45 H5         -3.8410   -1.5700    3.3210 H         1     LIG8    0.0000
     46 H6         -2.1600   -1.1240    3.6740 H         1     LIG8    0.0000
     47 H7         -0.8600   -2.6650    0.5920 H         1     LIG8    0.0000
     48 H8         -0.3170   -2.1000    2.1820 H         1     LIG8    0.0000
     49 H9         -0.0310    3.4720   -1.1910 H         1     LIG8    0.0000
     50 H10        -2.0290    7.4180   -1.2660 H         1     LIG8    0.0000
     51 H11        -4.2430    2.7830    1.6530 H         1     LIG8    0.0000
     52 H12        -5.7680    6.6930    1.4660 H         1     LIG8    0.0000
     53 H13       -10.3440    6.1760    4.6160 H         1     LIG8    0.0000
     54 H14       -10.6340    4.4850    4.2160 H         1     LIG8    0.0000
     55 H15        -9.6930    4.9120    5.6560 H         1     LIG8    0.0000
     56 H16        -1.6170   -3.6080    3.4450 H         1     LIG8    0.0000
     57 H17        -3.3480   -3.8040    3.1370 H         1     LIG8    0.0000
     58 H18        -1.0940   -4.7230    1.3110 H         1     LIG8    0.0000
     59 H19        -0.9910   -7.2510    1.3080 H         1     LIG8    0.0000
     60 H20        -2.1460   -8.0850    2.3700 H         1     LIG8    0.0000
     61 H21       -10.0500    8.5700    2.1600 H         1     LIG8    0.0000
     62 H22        -9.6810    7.0890    1.2580 H         1     LIG8    0.0000
     63 H23       -10.5400    7.0020    2.7940 H         1     LIG8    0.0000
     64 H24        -8.7160    9.1760    4.2090 H         1     LIG8    0.0000
     65 H25        -9.0620    7.6650    5.0450 H         1     LIG8    0.0000
     66 H26        -7.3880    8.1330    4.7520 H         1     LIG8    0.0000
     67 H27        -7.8590    9.3260    2.0520 H         1     LIG8    0.0000
     68 H28        -6.4640    8.3610    2.5290 H         1     LIG8    0.0000
     69 H29        -7.4170    7.9280    1.0740 H         1     LIG8    0.0000
     70 H30        -4.1330   -4.8670    0.9790 H         1     LIG8    0.0000
     71 H31        -3.0020   -3.9720   -0.0550 H         1     LIG8    0.0000
     72 H32        -1.9500   -6.0170   -0.5970 H         1     LIG8    0.0000
     73 H33        -4.0300   -7.3380    0.9870 H         1     LIG8    0.0000
     74 H34        -2.8330   -8.1440   -0.0460 H         1     LIG8    0.0000
@<TRIPOS>BOND
     1    1    2 2
     2    1    6 1
     3    2    3 1
     4    2    7 1
     5    3    4 2
     6    3   10 1
     7    4    5 1
     8    4   41 1
     9    5    6 2
    10    5   42 1
    11    6   11 1
    12    7    8 1
    13    7   43 1
    14    7   44 1
    15    8    9 1
    16    8   45 1
    17    8   46 1
    18    9   10 1
    19    9   31 1
    20   10   47 1
    21   10   48 1
    22   11   12 1
    23   11   49 1
    24   12   13 2
    25   12   17 1
    26   13   14 1
    27   14   15 2
    28   14   19 1
    29   15   16 1
    30   15   18 1
    31   16   17 2
    32   16   50 1
    33   19   20 2
    34   19   24 1
    35   20   21 1
    36   20   51 1
    37   21   22 2
    38   21   25 1
    39   22   23 1
    40   22   26 1
    41   23   24 2
    42   23   28 1
    43   24   52 1
    44   26   27 2
    45   27   28 1
    46   27   29 1
    47   28   30 1
    48   29   53 1
    49   29   54 1
    50   29   55 1
    51   30   35 1
    52   30   36 1
    53   30   37 1
    54   32   31 1
    55   31   56 1
    56   31   57 1
    57   32   33 1
    58   32   38 1
    59   32   58 1
    60   33   34 1
    61   34   40 1
    62   34   59 1
    63   34   60 1
    64   35   61 1
    65   35   62 1
    66   35   63 1
    67   36   64 1
    68   36   65 1
    69   36   66 1
    70   37   67 1
    71   37   68 1
    72   37   69 1
    73   38   39 1
    74   38   70 1
    75   38   71 1
    76   39   40 1
    77   39   72 1
    78   40   73 1
    79   40   74 1
@<TRIPOS>SUBSTRUCTURE
     1     LIG8    1   GROUP 1   LIG 1
@<TRIPOS>MOLECULE
1174253
   70    75    1     0     0
SMALL
USER_CHARGES


@<TRIPOS>ATOM
      1 F1          2.6370    0.2170    2.6600 F         1     LIG9    0.0000
      2 C1          2.9650    0.8410    1.5640 C.2       1     LIG9    0.0000
      3 C2          2.9780    2.2520    1.3990 C.2       1     LIG9    0.0000
      4 N1          3.3510    2.7110    0.1710 N.2       1     LIG9    0.0000
      5 C3          3.7000    1.9350   -0.8820 C.2       1     LIG9    0.0000
      6 N2          3.6810    0.5960   -0.7110 N.2       1     LIG9    0.0000
      7 C4          3.3280    0.0390    0.4700 C.2       1     LIG9    0.0000
      8 N3          4.0710    2.4220   -2.0900 N.pl3     1     LIG9    0.0000
      9 C5          4.1700    3.7290   -2.4410 C.2       1     LIG9    0.0000
     10 C6          4.6000    4.0430   -3.7420 C.2       1     LIG9    0.0000
     11 C7          4.7330    5.3900   -4.1180 C.2       1     LIG9    0.0000
     12 C8          4.4340    6.4220   -3.2140 C.2       1     LIG9    0.0000
     13 C9          3.9960    6.0580   -1.9260 C.2       1     LIG9    0.0000
     14 N4          3.8840    4.7500   -1.5900 N.2       1     LIG9    0.0000
     15 O1          4.6110    7.7110   -3.6330 O.3       1     LIG9    0.0000
     16 C10         4.2770    8.8570   -2.8400 C.3       1     LIG9    0.0000
     17 C11         4.9520   10.0840   -3.4670 C.3       1     LIG9    0.0000
     18 C12         4.5660   11.3520   -2.6910 C.3       1     LIG9    0.0000
     19 N5          3.1020   11.5440   -2.7160 N.3       1     LIG9    0.0000
     20 C13         2.4370   10.3950   -2.0640 C.3       1     LIG9    0.0000
     21 C14         2.7580    9.0920   -2.8120 C.3       1     LIG9    0.0000
     22 C15         2.7630   12.8110   -2.0310 C.3       1     LIG9    0.0000
     23 C16         1.3230   13.2490   -2.3300 C.3       1     LIG9    0.0000
     24 O2          1.1010   14.5410   -1.7810 O.3       1     LIG9    0.0000
     25 C17         2.6400    3.2440    2.3840 C.2       1     LIG9    0.0000
     26 C18         2.7020    4.6180    2.0220 C.2       1     LIG9    0.0000
     27 C19         2.3740    5.6080    2.9570 C.2       1     LIG9    0.0000
     28 C20         1.9830    5.2900    4.2550 C.2       1     LIG9    0.0000
     29 N6          1.7180    6.4190    4.9440 N.2       1     LIG9    0.0000
     30 C21         1.9500    7.4030    4.0560 C.2       1     LIG9    0.0000
     31 N7          2.3380    6.9420    2.8790 N.pl3     1     LIG9    0.0000
     32 C22         2.5860    7.9190    1.8910 C.3       1     LIG9    0.0000
     33 C23         2.2810    9.2330    2.6690 C.3       1     LIG9    0.0000
     34 C24         1.8540    8.8490    4.1070 C.3       1     LIG9    0.0000
     35 C25         1.6280    7.7410    0.6990 C.3       1     LIG9    0.0000
     36 C26         4.0540    7.8780    1.4280 C.3       1     LIG9    0.0000
     37 C27         1.9110    3.9480    4.6540 C.2       1     LIG9    0.0000
     38 C28         2.2380    2.9430    3.7180 C.2       1     LIG9    0.0000
     39 F2          1.5450    3.6290    5.8640 F         1     LIG9    0.0000
     40 H1          3.3280   -0.9780    0.5580 H         1     LIG9    0.0000
     41 H2          4.2950    1.7660   -2.7680 H         1     LIG9    0.0000
     42 H3          4.8220    3.3020   -4.4090 H         1     LIG9    0.0000
     43 H4          5.0550    5.6210   -5.0590 H         1     LIG9    0.0000
     44 H5          3.7650    6.7710   -1.2380 H         1     LIG9    0.0000
     45 H6          4.6570    8.7450   -1.8220 H         1     LIG9    0.0000
     46 H7          6.0340    9.9560   -3.4360 H         1     LIG9    0.0000
     47 H8          4.6340   10.1860   -4.5050 H         1     LIG9    0.0000
     48 H9          5.0550   12.2040   -3.1660 H         1     LIG9    0.0000
     49 H10         4.9210   11.2710   -1.6620 H         1     LIG9    0.0000
     50 H11         1.3570   10.5290   -2.0780 H         1     LIG9    0.0000
     51 H12         2.7700   10.3100   -1.0280 H         1     LIG9    0.0000
     52 H13         2.3840    9.1640   -3.8350 H         1     LIG9    0.0000
     53 H14         2.2600    8.2610   -2.3140 H         1     LIG9    0.0000
     54 H15         2.8970   12.7080   -0.9530 H         1     LIG9    0.0000
     55 H16         3.4250   13.6010   -2.3890 H         1     LIG9    0.0000
     56 H17         1.1690   13.2860   -3.4090 H         1     LIG9    0.0000
     57 H18         0.6140   12.5520   -1.8860 H         1     LIG9    0.0000
     58 H19         0.2010   14.8980   -1.9390 H         1     LIG9    0.0000
     59 H20         2.9790    4.9080    1.0830 H         1     LIG9    0.0000
     60 H21         3.1680    9.8680    2.7130 H         1     LIG9    0.0000
     61 H22         1.4750    9.7880    2.1870 H         1     LIG9    0.0000
     62 H23         0.8290    9.1610    4.3120 H         1     LIG9    0.0000
     63 H24         2.5420    9.2560    4.8480 H         1     LIG9    0.0000
     64 H25         1.7550    8.5660    0.0010 H         1     LIG9    0.0000
     65 H26         1.8370    6.8030    0.1860 H         1     LIG9    0.0000
     66 H27         0.5960    7.7310    1.0530 H         1     LIG9    0.0000
     67 H28         4.2300    8.6620    0.6910 H         1     LIG9    0.0000
     68 H29         4.7150    8.0330    2.2810 H         1     LIG9    0.0000
     69 H30         4.2780    6.9090    0.9820 H         1     LIG9    0.0000
     70 H31         2.1730    1.9820    4.0400 H         1     LIG9    0.0000
@<TRIPOS>BOND
     1    1    2 1
     2    2    3 2
     3    2    7 1
     4    3    4 1
     5    3   25 1
     6    4    5 2
     7    5    6 1
     8    5    8 1
     9    6    7 2
    10    7   40 1
    11    8    9 1
    12    8   41 1
    13    9   10 2
    14    9   14 1
    15   10   11 1
    16   10   42 1
    17   11   12 2
    18   11   43 1
    19   12   13 1
    20   12   15 1
    21   13   14 2
    22   13   44 1
    23   15   16 1
    24   16   17 1
    25   16   21 1
    26   16   45 1
    27   17   18 1
    28   17   46 1
    29   17   47 1
    30   18   19 1
    31   18   48 1
    32   18   49 1
    33   19   20 1
    34   19   22 1
    35   20   21 1
    36   20   50 1
    37   20   51 1
    38   21   52 1
    39   21   53 1
    40   22   23 1
    41   22   54 1
    42   22   55 1
    43   23   24 1
    44   23   56 1
    45   23   57 1
    46   24   58 1
    47   25   26 1
    48   25   38 2
    49   26   27 2
    50   26   59 1
    51   27   28 1
    52   27   31 1
    53   28   29 1
    54   28   37 2
    55   29   30 2
    56   30   31 1
    57   30   34 1
    58   31   32 1
    59   32   33 1
    60   32   35 1
    61   32   36 1
    62   33   34 1
    63   33   60 1
    64   33   61 1
    65   34   62 1
    66   34   63 1
    67   35   64 1
    68   35   65 1
    69   35   66 1
    70   36   67 1
    71   36   68 1
    72   36   69 1
    73   37   38 1
    74   37   39 1
    75   38   70 1
@<TRIPOS>SUBSTRUCTURE
     1     LIG9    1   GROUP 1   LIG 1
@<TRIPOS>MOLECULE
169562
   82    86    1     0     0
SMALL
USER_CHARGES


@<TRIPOS>ATOM
      1 C1         -4.2250    3.4520   -0.6610 C.2       1    LIG10    0.0000
      2 C2         -3.2020    2.6800   -0.0730 C.2       1    LIG10    0.0000
      3 C3         -1.9040    2.6700   -0.6260 C.2       1    LIG10    0.0000
      4 C4         -1.6100    3.4320   -1.7740 C.2       1    LIG10    0.0000
      5 C5         -3.9220    4.2050   -1.8110 C.2       1    LIG10    0.0000
      6 C6         -4.6910    5.0610   -2.6030 C.2       1    LIG10    0.0000
      7 C7         -2.6400    4.1930   -2.3490 C.2       1    LIG10    0.0000
      8 N1         -2.6200    4.9990   -3.4150 N.pl3     1    LIG10    0.0000
      9 C8         -3.8460    5.5330   -3.6300 C.2       1    LIG10    0.0000
     10 N2         -5.9260    5.4350   -2.3880 N.2       1    LIG10    0.0000
     11 C9         -4.0850    6.4220   -4.6940 C.2       1    LIG10    0.0000
     12 C10        -3.0520    7.0170   -5.4410 C.2       1    LIG10    0.0000
     13 N3         -3.5600    7.8590   -6.3500 N.am      1    LIG10    0.0000
     14 C11        -4.8900    7.8280   -6.2660 C.2       1    LIG10    0.0000
     15 C12        -6.6440    6.6870   -5.0480 C.2       1    LIG10    0.0000
     16 C13        -5.2720    6.9350   -5.2590 C.2       1    LIG10    0.0000
     17 C14        -5.8260    8.5230   -7.0450 C.2       1    LIG10    0.0000
     18 C15        -7.1920    8.2850   -6.8140 C.2       1    LIG10    0.0000
     19 C16        -7.6070    7.3680   -5.8250 C.2       1    LIG10    0.0000
     20 O1         -1.8230    6.8440   -5.2860 O.2       1    LIG10    0.0000
     21 S1         -9.3050    7.0700   -5.5890 S.o2      1    LIG10    0.0000
     22 O2         -9.9450    6.9890   -7.0430 O.2       1    LIG10    0.0000
     23 O3         -9.4810    5.9050   -4.5190 O.2       1    LIG10    0.0000
     24 N4         -9.9100    8.4800   -4.8810 N.pl3     1    LIG10    0.0000
     25 C17       -10.1330    8.5040   -3.4810 C.3       1    LIG10    0.0000
     26 C18       -10.1750    9.6240   -5.6810 C.3       1    LIG10    0.0000
     27 C19        -9.2410   10.7840   -5.2990 C.3       1    LIG10    0.0000
     28 N5         -9.1210   11.7690   -6.3920 N.3       1    LIG10    1.0000
     29 C20       -10.3970   12.4710   -6.6280 C.3       1    LIG10    0.0000
     30 C21        -8.0740   12.7530   -6.0630 C.3       1    LIG10    0.0000
     31 O4         -6.6570    5.0600   -1.4210 O.3       1    LIG10    0.0000
     32 C22        -7.8810    5.7750   -1.2610 C.3       1    LIG10    0.0000
     33 C23        -7.6190    7.2360   -0.8640 C.3       1    LIG10    0.0000
     34 O5         -6.9670    7.9200   -1.9330 O.3       1    LIG10    0.0000
     35 C24        -6.6270    9.2860   -1.7280 C.3       1    LIG10    0.0000
     36 C25        -7.6680   11.4520   -1.3860 C.3       1    LIG10    0.0000
     37 C26        -6.9350   12.0420   -2.6020 C.3       1    LIG10    0.0000
     38 C27        -5.6000   11.3100   -2.8140 C.3       1    LIG10    0.0000
     39 C28        -5.8430    9.7980   -2.9470 C.3       1    LIG10    0.0000
     40 O6         -7.8240   10.0460   -1.5710 O.3       1    LIG10    0.0000
     41 C29        -9.0540   12.0930   -1.2260 C.3       1    LIG10    0.0000
     42 O7         -4.9750   11.8080   -3.9910 O.3       1    LIG10    0.0000
     43 O8         -6.6900   13.4290   -2.4110 O.3       1    LIG10    0.0000
     44 O9         -4.5950    9.1210   -3.0380 O.3       1    LIG10    0.0000
     45 O10        -9.7010   11.5620   -0.0770 O.3       1    LIG10    0.0000
     46 H1         -5.1620    3.4590   -0.2580 H         1    LIG10    0.0000
     47 H2         -3.4030    2.1260    0.7600 H         1    LIG10    0.0000
     48 H3         -1.1720    2.1070   -0.1900 H         1    LIG10    0.0000
     49 H4         -0.6730    3.4320   -2.1760 H         1    LIG10    0.0000
     50 H5         -1.8390    5.1730   -3.9640 H         1    LIG10    0.0000
     51 H6         -3.0440    8.3900   -6.9750 H         1    LIG10    0.0000
     52 H7         -6.9610    6.0020   -4.3710 H         1    LIG10    0.0000
     53 H8         -5.5240    9.1710   -7.7730 H         1    LIG10    0.0000
     54 H9         -7.8880    8.7720   -7.3770 H         1    LIG10    0.0000
     55 H10       -10.4980    9.4780   -3.1560 H         1    LIG10    0.0000
     56 H11       -10.8690    7.7430   -3.2210 H         1    LIG10    0.0000
     57 H12        -9.1990    8.2840   -2.9700 H         1    LIG10    0.0000
     58 H13       -10.0180    9.3820   -6.7310 H         1    LIG10    0.0000
     59 H14       -11.2130    9.9270   -5.5460 H         1    LIG10    0.0000
     60 H15        -9.6120   11.2670   -4.3940 H         1    LIG10    0.0000
     61 H16        -8.2520   10.3720   -5.0940 H         1    LIG10    0.0000
     62 H17       -10.2660   13.2160   -7.4140 H         1    LIG10    0.0000
     63 H18       -11.1580   11.7620   -6.9530 H         1    LIG10    0.0000
     64 H19       -10.7340   12.9680   -5.7170 H         1    LIG10    0.0000
     65 H20        -7.9520   13.4510   -6.8910 H         1    LIG10    0.0000
     66 H21        -8.3430   13.3090   -5.1630 H         1    LIG10    0.0000
     67 H22        -7.1250   12.2410   -5.8980 H         1    LIG10    0.0000
     68 H23        -8.4530    5.7450   -2.1890 H         1    LIG10    0.0000
     69 H24        -8.4610    5.2940   -0.4740 H         1    LIG10    0.0000
     70 H25        -8.5710    7.7220   -0.6450 H         1    LIG10    0.0000
     71 H26        -6.9900    7.2580    0.0260 H         1    LIG10    0.0000
     72 H27        -6.0070    9.3790   -0.8340 H         1    LIG10    0.0000
     73 H28        -7.0830   11.6390   -0.4840 H         1    LIG10    0.0000
     74 H29        -7.5520   11.9110   -3.4870 H         1    LIG10    0.0000
     75 H30        -4.9490   11.4970   -1.9580 H         1    LIG10    0.0000
     76 H31        -6.4230    9.6010   -3.8490 H         1    LIG10    0.0000
     77 H32        -8.9480   13.1720   -1.1080 H         1    LIG10    0.0000
     78 H33        -9.6600   11.8850   -2.1080 H         1    LIG10    0.0000
     79 H34        -4.0820   11.4400   -4.1600 H         1    LIG10    0.0000
     80 H35        -6.1970   13.8470   -3.1480 H         1    LIG10    0.0000
     81 H36        -4.0870    9.3150   -3.8530 H         1    LIG10    0.0000
     82 H37       -10.5950   11.9260    0.0890 H         1    LIG10    0.0000
@<TRIPOS>BOND
     1    1    2 2
     2    1    5 1
     3    1   46 1
     4    2    3 1
     5    2   47 1
     6    3    4 2
     7    3   48 1
     8    4    7 1
     9    4   49 1
    10    5    6 1
    11    5    7 2
    12    6    9 1
    13    6   10 2
    14    7    8 1
    15    8    9 1
    16    8   50 1
    17    9   11 2
    18   10   31 1
    19   11   12 1
    20   11   16 1
    21   12   13 1
    22   12   20 2
    23   13   14 1
    24   13   51 1
    25   14   16 1
    26   14   17 2
    27   15   16 2
    28   15   19 1
    29   15   52 1
    30   17   18 1
    31   17   53 1
    32   18   19 2
    33   18   54 1
    34   19   21 1
    35   21   22 2
    36   21   23 2
    37   21   24 1
    38   24   25 1
    39   24   26 1
    40   25   55 1
    41   25   56 1
    42   25   57 1
    43   26   27 1
    44   26   58 1
    45   26   59 1
    46   27   28 1
    47   27   60 1
    48   27   61 1
    49   28   29 1
    50   28   30 1
    51   29   62 1
    52   29   63 1
    53   29   64 1
    54   30   65 1
    55   30   66 1
    56   30   67 1
    57   31   32 1
    58   32   33 1
    59   32   68 1
    60   32   69 1
    61   33   34 1
    62   33   70 1
    63   33   71 1
    64   35   34 1
    65   35   39 1
    66   35   40 1
    67   35   72 1
    68   36   37 1
    69   36   40 1
    70   36   41 1
    71   36   73 1
    72   37   38 1
    73   37   43 1
    74   37   74 1
    75   38   39 1
    76   38   42 1
    77   38   75 1
    78   39   44 1
    79   39   76 1
    80   41   45 1
    81   41   77 1
    82   41   78 1
    83   42   79 1
    84   43   80 1
    85   44   81 1
    86   45   82 1
@<TRIPOS>SUBSTRUCTURE
     1    LIG10    1   GROUP 1   LIG 1
@<TRIPOS>MOLECULE
50247864
   57    61    1     0     0
SMALL
USER_CHARGES


@<TRIPOS>ATOM
      1 N1          6.5270   -1.1200   -1.1970 N.pl3     1    LIG11    0.0000
      2 C1          4.1710   -3.8830   -0.9970 C.2       1    LIG11    0.0000
      3 N2          4.7330   -2.6860   -1.2950 N.2       1    LIG11    0.0000
      4 C2          5.9770   -2.3240   -0.8950 C.2       1    LIG11    0.0000
      5 C3          6.7300   -3.2290   -0.1340 C.2       1    LIG11    0.0000
      6 C4          6.1520   -4.4670    0.1740 C.2       1    LIG11    0.0000
      7 N3          4.9030   -4.7560   -0.2600 N.2       1    LIG11    0.0000
      8 N4          2.9100   -4.1910   -1.4230 N.pl3     1    LIG11    0.0000
      9 C5          2.2830   -5.4380   -1.1060 C.3       1    LIG11    0.0000
     10 C6          0.9790   -5.1790   -0.3320 C.3       1    LIG11    0.0000
     11 C7          0.0600   -4.2390   -1.1290 C.3       1    LIG11    0.0000
     12 C8          0.8310   -2.9470   -1.4520 C.3       1    LIG11    0.0000
     13 C9          2.1290   -3.2800   -2.2040 C.3       1    LIG11    0.0000
     14 O1         -0.3620   -4.9180   -2.3140 O.3       1    LIG11    0.0000
     15 C10        -1.3700   -4.3140   -3.1200 C.3       1    LIG11    0.0000
     16 C11         4.1070    0.7680   -3.1780 C.2       1    LIG11    0.0000
     17 C12         4.8300    1.9490   -3.3870 C.2       1    LIG11    0.0000
     18 C13         6.1120    2.0970   -2.8630 C.2       1    LIG11    0.0000
     19 C14         6.6990    1.0590   -2.1180 C.2       1    LIG11    0.0000
     20 C15         5.9550   -0.1220   -1.9180 C.2       1    LIG11    0.0000
     21 N5          4.7020   -0.2150   -2.4530 N.2       1    LIG11    0.0000
     22 N6          6.5820    3.3170   -3.2060 N.pl3     1    LIG11    0.0000
     23 C16         4.5160    3.1130   -4.0670 C.2       1    LIG11    0.0000
     24 C17         5.6270    3.9390   -3.9330 C.2       1    LIG11    0.0000
     25 C18         7.8590    3.8690   -2.8690 C.3       1    LIG11    0.0000
     26 C19         8.7040    4.2480   -4.0910 C.3       1    LIG11    0.0000
     27 C20         9.7550    5.2190   -3.5400 C.3       1    LIG11    0.0000
     28 C21         9.1550    5.8250   -2.2610 C.3       1    LIG11    0.0000
     29 C22         7.7730    5.1860   -2.0870 C.3       1    LIG11    0.0000
     30 H1          7.4220   -0.9560   -0.8620 H         1    LIG11    0.0000
     31 H2          7.6710   -2.9980    0.1880 H         1    LIG11    0.0000
     32 H3          6.6710   -5.1510    0.7250 H         1    LIG11    0.0000
     33 H4          2.9170   -6.0880   -0.5020 H         1    LIG11    0.0000
     34 H5          2.0470   -5.9610   -2.0340 H         1    LIG11    0.0000
     35 H6          0.4670   -6.1250   -0.1570 H         1    LIG11    0.0000
     36 H7          1.2180   -4.7210    0.6280 H         1    LIG11    0.0000
     37 H8         -0.8120   -3.9990   -0.5190 H         1    LIG11    0.0000
     38 H9          0.2160   -2.2840   -2.0590 H         1    LIG11    0.0000
     39 H10         1.0820   -2.4370   -0.5210 H         1    LIG11    0.0000
     40 H11         2.6530   -2.3460   -2.4150 H         1    LIG11    0.0000
     41 H12         1.8790   -3.7510   -3.1560 H         1    LIG11    0.0000
     42 H13        -1.6380   -4.9990   -3.9250 H         1    LIG11    0.0000
     43 H14        -2.2550   -4.1080   -2.5170 H         1    LIG11    0.0000
     44 H15        -1.0000   -3.3850   -3.5550 H         1    LIG11    0.0000
     45 H16         3.1670    0.6460   -3.5560 H         1    LIG11    0.0000
     46 H17         7.6370    1.1580   -1.7310 H         1    LIG11    0.0000
     47 H18         3.6510    3.3230   -4.5640 H         1    LIG11    0.0000
     48 H19         5.7050    4.8770   -4.3280 H         1    LIG11    0.0000
     49 H20         8.4400    3.1660   -2.2700 H         1    LIG11    0.0000
     50 H21         8.0940    4.7620   -4.8350 H         1    LIG11    0.0000
     51 H22         9.1710    3.3680   -4.5350 H         1    LIG11    0.0000
     52 H23        10.6670    4.6730   -3.2940 H         1    LIG11    0.0000
     53 H24         9.9770    5.9960   -4.2720 H         1    LIG11    0.0000
     54 H25         9.7870    5.5770   -1.4080 H         1    LIG11    0.0000
     55 H26         9.0650    6.9080   -2.3510 H         1    LIG11    0.0000
     56 H27         7.5500    5.0050   -1.0350 H         1    LIG11    0.0000
     57 H28         7.0170    5.8410   -2.5210 H         1    LIG11    0.0000
@<TRIPOS>BOND
     1    1    4 1
     2    1   20 1
     3    1   30 1
     4    2    3 2
     5    2    7 1
     6    2    8 1
     7    3    4 1
     8    4    5 2
     9    5    6 1
    10    5   31 1
    11    6    7 2
    12    6   32 1
    13    8    9 1
    14    8   13 1
    15    9   10 1
    16    9   33 1
    17    9   34 1
    18   10   11 1
    19   10   35 1
    20   10   36 1
    21   11   12 1
    22   11   14 1
    23   11   37 1
    24   12   13 1
    25   12   38 1
    26   12   39 1
    27   13   40 1
    28   13   41 1
    29   14   15 1
    30   15   42 1
    31   15   43 1
    32   15   44 1
    33   16   17 2
    34   16   21 1
    35   16   45 1
    36   17   18 1
    37   17   23 1
    38   18   19 2
    39   18   22 1
    40   19   20 1
    41   19   46 1
    42   20   21 2
    43   22   24 1
    44   22   25 1
    45   23   24 2
    46   23   47 1
    47   24   48 1
    48   25   26 1
    49   25   29 1
    50   25   49 1
    51   26   27 1
    52   26   50 1
    53   26   51 1
    54   27   28 1
    55   27   52 1
    56   27   53 1
    57   28   29 1
    58   28   54 1
    59   28   55 1
    60   29   56 1
    61   29   57 1
@<TRIPOS>SUBSTRUCTURE
     1    LIG11    1   GROUP 1   LIG 1
@<TRIPOS>MOLECULE
1028549
   79    84    1     0     0
SMALL
USER_CHARGES


@<TRIPOS>ATOM
      1 N1         -2.2190   -0.1790    0.2180 N.2       1    LIG12    0.0000
      2 C1         -2.3520   -1.5060    0.4720 C.2       1    LIG12    0.0000
      3 C2         -1.2250   -2.2510    0.8720 C.2       1    LIG12    0.0000
      4 C3         -0.0160   -1.5660    1.0890 C.2       1    LIG12    0.0000
      5 C4          0.0660   -0.1810    0.8750 C.2       1    LIG12    0.0000
      6 C5         -1.0590    0.5090    0.3950 C.2       1    LIG12    0.0000
      7 C6         -3.6870   -2.1230    0.3980 C.3       1    LIG12    0.0000
      8 C7         -3.7300   -3.5390    1.0010 C.3       1    LIG12    0.0000
      9 N2         -2.5550   -4.3080    0.5500 N.3       1    LIG12    0.0000
     10 C8         -1.3120   -3.7080    1.0910 C.3       1    LIG12    0.0000
     11 N3         -0.9730    1.8500    0.2150 N.pl3     1    LIG12    0.0000
     12 C9         -1.8620    2.6240   -0.4480 C.2       1    LIG12    0.0000
     13 N4         -2.7660    2.1270   -1.3250 N.2       1    LIG12    0.0000
     14 C10        -3.6430    2.8790   -2.0460 C.2       1    LIG12    0.0000
     15 C11        -3.6200    4.2800   -1.8190 C.2       1    LIG12    0.0000
     16 C12        -2.6650    4.7890   -0.9240 C.2       1    LIG12    0.0000
     17 N5         -1.8080    3.9620   -0.2820 N.2       1    LIG12    0.0000
     18 F1         -4.3680    5.1470   -2.4430 F         1    LIG12    0.0000
     19 C13        -4.4560    2.1910   -3.0080 C.2       1    LIG12    0.0000
     20 C14        -5.6020    2.7590   -3.6290 C.2       1    LIG12    0.0000
     21 C15        -6.3380    2.0660   -4.6110 C.2       1    LIG12    0.0000
     22 C16        -5.9060    0.7870   -4.9890 C.2       1    LIG12    0.0000
     23 C17        -4.7940    0.1950   -4.4060 C.2       1    LIG12    0.0000
     24 C18        -4.0830    0.8780   -3.4030 C.2       1    LIG12    0.0000
     25 F2         -7.3880    2.6100   -5.1590 F         1    LIG12    0.0000
     26 N6         -6.4090   -0.0520   -5.9010 N.2       1    LIG12    0.0000
     27 C19        -5.6160   -1.1400   -5.8920 C.2       1    LIG12    0.0000
     28 N7         -4.6100   -1.0090   -4.9900 N.pl3     1    LIG12    0.0000
     29 C20        -5.8950   -2.2650   -6.7930 C.3       1    LIG12    0.0000
     30 C21        -2.6920   -5.7230    0.9540 C.3       1    LIG12    0.0000
     31 C22        -1.6000   -6.6140    0.3340 C.3       1    LIG12    0.0000
     32 N8         -1.4230   -6.3720   -1.1140 N.3       1    LIG12    1.0000
     33 C23        -0.2620   -7.1400   -1.6000 C.3       1    LIG12    0.0000
     34 C24        -2.6230   -6.7660   -1.8750 C.3       1    LIG12    0.0000
     35 C25        -3.5600   -1.9560   -4.7240 C.3       1    LIG12    0.0000
     36 C26        -3.6180   -2.4620   -3.2710 C.3       1    LIG12    0.0000
     37 C27        -2.5110   -3.4910   -3.0030 C.3       1    LIG12    0.0000
     38 C28        -1.1370   -2.8630   -3.2800 C.3       1    LIG12    0.0000
     39 C29        -1.0640   -2.4130   -4.7510 C.3       1    LIG12    0.0000
     40 C30        -2.1650   -1.3820   -5.0510 C.3       1    LIG12    0.0000
     41 C31        -0.0220   -3.8710   -2.9690 C.3       1    LIG12    0.0000
     42 H1          0.8070   -2.0770    1.4080 H         1    LIG12    0.0000
     43 H2          0.9440    0.3110    1.0470 H         1    LIG12    0.0000
     44 H3         -4.3930   -1.5000    0.9470 H         1    LIG12    0.0000
     45 H4         -4.0070   -2.1720   -0.6380 H         1    LIG12    0.0000
     46 H5         -4.6490   -4.0260    0.6710 H         1    LIG12    0.0000
     47 H6         -3.7370   -3.4740    2.0910 H         1    LIG12    0.0000
     48 H7         -0.4660   -4.1780    0.5870 H         1    LIG12    0.0000
     49 H8         -1.2360   -3.9060    2.1610 H         1    LIG12    0.0000
     50 H9         -0.2110    2.3010    0.6090 H         1    LIG12    0.0000
     51 H10        -2.5990    5.7950   -0.7640 H         1    LIG12    0.0000
     52 H11        -5.9360    3.6820   -3.3580 H         1    LIG12    0.0000
     53 H12        -3.2630    0.4350   -2.9910 H         1    LIG12    0.0000
     54 H13        -5.1850   -3.0770   -6.6720 H         1    LIG12    0.0000
     55 H14        -6.8970   -2.6420   -6.5880 H         1    LIG12    0.0000
     56 H15        -5.8540   -1.9120   -7.8240 H         1    LIG12    0.0000
     57 H16        -2.6440   -5.8070    2.0410 H         1    LIG12    0.0000
     58 H17        -3.6620   -6.0990    0.6270 H         1    LIG12    0.0000
     59 H18        -0.6610   -6.4060    0.8480 H         1    LIG12    0.0000
     60 H19        -1.8580   -7.6590    0.5090 H         1    LIG12    0.0000
     61 H20        -0.1210   -6.9640   -2.6670 H         1    LIG12    0.0000
     62 H21         0.6370   -6.8170   -1.0740 H         1    LIG12    0.0000
     63 H22        -0.4130   -8.2070   -1.4310 H         1    LIG12    0.0000
     64 H23        -2.4350   -6.6540   -2.9440 H         1    LIG12    0.0000
     65 H24        -2.8840   -7.8040   -1.6660 H         1    LIG12    0.0000
     66 H25        -3.4600   -6.1220   -1.6070 H         1    LIG12    0.0000
     67 H26        -3.6790   -2.8350   -5.3540 H         1    LIG12    0.0000
     68 H27        -3.4800   -1.6300   -2.5870 H         1    LIG12    0.0000
     69 H28        -4.5890   -2.9210   -3.0830 H         1    LIG12    0.0000
     70 H29        -2.5620   -3.8060   -1.9620 H         1    LIG12    0.0000
     71 H30        -2.6590   -4.3600   -3.6460 H         1    LIG12    0.0000
     72 H31        -1.0060   -1.9930   -2.6330 H         1    LIG12    0.0000
     73 H32        -0.0910   -1.9590   -4.9430 H         1    LIG12    0.0000
     74 H33        -1.1890   -3.2760   -5.4050 H         1    LIG12    0.0000
     75 H34        -1.9680   -0.4880   -4.4630 H         1    LIG12    0.0000
     76 H35        -2.1260   -1.1200   -6.1090 H         1    LIG12    0.0000
     77 H36         0.9490   -3.4150   -3.1590 H         1    LIG12    0.0000
     78 H37        -0.0780   -4.1640   -1.9200 H         1    LIG12    0.0000
     79 H38        -0.1350   -4.7550   -3.5970 H         1    LIG12    0.0000
@<TRIPOS>BOND
     1    1    2 2
     2    1    6 1
     3    2    3 1
     4    2    7 1
     5    3    4 2
     6    3   10 1
     7    4    5 1
     8    4   42 1
     9    5    6 2
    10    5   43 1
    11    6   11 1
    12    7    8 1
    13    7   44 1
    14    7   45 1
    15    8    9 1
    16    8   46 1
    17    8   47 1
    18    9   10 1
    19    9   30 1
    20   10   48 1
    21   10   49 1
    22   11   12 1
    23   11   50 1
    24   12   13 2
    25   12   17 1
    26   13   14 1
    27   14   15 2
    28   14   19 1
    29   15   16 1
    30   15   18 1
    31   16   17 2
    32   16   51 1
    33   19   20 2
    34   19   24 1
    35   20   21 1
    36   20   52 1
    37   21   22 2
    38   21   25 1
    39   22   23 1
    40   22   26 1
    41   23   24 2
    42   23   28 1
    43   24   53 1
    44   26   27 2
    45   27   28 1
    46   27   29 1
    47   35   28 1
    48   29   54 1
    49   29   55 1
    50   29   56 1
    51   30   31 1
    52   30   57 1
    53   30   58 1
    54   31   32 1
    55   31   59 1
    56   31   60 1
    57   32   33 1
    58   32   34 1
    59   33   61 1
    60   33   62 1
    61   33   63 1
    62   34   64 1
    63   34   65 1
    64   34   66 1
    65   35   36 1
    66   35   40 1
    67   35   67 1
    68   36   37 1
    69   36   68 1
    70   36   69 1
    71   37   38 1
    72   37   70 1
    73   37   71 1
    74   38   39 1
    75   38   41 1
    76   38   72 1
    77   39   40 1
    78   39   73 1
    79   39   74 1
    80   40   75 1
    81   40   76 1
    82   41   77 1
    83   41   78 1
    84   41   79 1
@<TRIPOS>SUBSTRUCTURE
     1    LIG12    1   GROUP 1   LIG 1
@<TRIPOS>MOLECULE
50960970
   58    61    1     0     0
SMALL
USER_CHARGES


@<TRIPOS>ATOM
      1 C1          7.0250  -14.6310   -0.1250 C.2       1    LIG13    0.0000
      2 C2          5.7960  -14.0130   -0.4040 C.2       1    LIG13    0.0000
      3 C3          4.5870  -14.6460   -0.0610 C.2       1    LIG13    0.0000
      4 C4          4.6110  -15.9170    0.5560 C.2       1    LIG13    0.0000
      5 C5          5.8510  -16.5240    0.8380 C.2       1    LIG13    0.0000
      6 C6          7.0650  -15.8830    0.5140 C.2       1    LIG13    0.0000
      7 N1          8.2820  -16.4340    0.7490 N.pl3     1    LIG13    0.0000
      8 C7          8.6820  -17.0400    1.8920 C.2       1    LIG13    0.0000
      9 N2          9.9570  -17.4870    1.9550 N.2       1    LIG13    0.0000
     10 C8         10.4480  -18.0850    3.0640 C.2       1    LIG13    0.0000
     11 C9          9.6330  -18.2530    4.1900 C.2       1    LIG13    0.0000
     12 C10         8.3010  -17.7900    4.1340 C.2       1    LIG13    0.0000
     13 N3          7.8860  -17.2030    2.9790 N.2       1    LIG13    0.0000
     14 C11         7.3830  -17.9220    5.2170 C.2       1    LIG13    0.0000
     15 C12         5.9910  -17.8760    4.9740 C.2       1    LIG13    0.0000
     16 C13         5.0560  -18.0220    6.0270 C.2       1    LIG13    0.0000
     17 N4          5.5580  -18.1910    7.2800 N.2       1    LIG13    0.0000
     18 C14         6.8770  -18.2300    7.5790 C.2       1    LIG13    0.0000
     19 C15         7.8170  -18.0980    6.5500 C.2       1    LIG13    0.0000
     20 C16         3.6370  -18.0160    5.8490 C.2       1    LIG13    0.0000
     21 C17         3.0250  -17.8580    4.5830 C.2       1    LIG13    0.0000
     22 C18         1.6290  -17.8760    4.4310 C.2       1    LIG13    0.0000
     23 C19         0.7830  -18.0450    5.5480 C.2       1    LIG13    0.0000
     24 C20         1.3800  -18.1930    6.8130 C.2       1    LIG13    0.0000
     25 C21         2.7770  -18.1800    6.9610 C.2       1    LIG13    0.0000
     26 N5         -0.5790  -18.0810    5.5200 N.am      1    LIG13    0.0000
     27 C22        -1.4240  -17.9770    4.4600 C.2       1    LIG13    0.0000
     28 N6         -2.7560  -18.0400    4.6520 N.am      1    LIG13    0.0000
     29 O1         -1.0440  -17.8280    3.2780 O.2       1    LIG13    0.0000
     30 C23        -3.3570  -18.2040    5.9270 C.3       1    LIG13    0.0000
     31 S1          3.1530  -16.7540    1.0060 S.o2      1    LIG13    0.0000
     32 N7          2.1740  -16.9040   -0.3520 N.pl3     1    LIG13    0.0000
     33 O2          3.5080  -18.2750    1.3090 O.2       1    LIG13    0.0000
     34 O3          2.3630  -15.8330    2.0340 O.2       1    LIG13    0.0000
     35 C24         0.7690  -16.8290   -0.2320 C.3       1    LIG13    0.0000
     36 Cl1         3.1340  -13.8470   -0.4030 Cl        1    LIG13    0.0000
     37 H1          7.8930  -14.1590   -0.3800 H         1    LIG13    0.0000
     38 H2          5.7920  -13.0970   -0.8580 H         1    LIG13    0.0000
     39 H3          5.8680  -17.4420    1.2840 H         1    LIG13    0.0000
     40 H4          8.9530  -16.3300    0.0580 H         1    LIG13    0.0000
     41 H5         11.4130  -18.4150    3.0780 H         1    LIG13    0.0000
     42 H6         10.0080  -18.7160    5.0180 H         1    LIG13    0.0000
     43 H7          5.6630  -17.7500    4.0160 H         1    LIG13    0.0000
     44 H8          7.1810  -18.3560    8.5440 H         1    LIG13    0.0000
     45 H9          8.8090  -18.1220    6.7870 H         1    LIG13    0.0000
     46 H10         3.5880  -17.7290    3.7450 H         1    LIG13    0.0000
     47 H11         1.2450  -17.7620    3.4950 H         1    LIG13    0.0000
     48 H12         0.7950  -18.3160    7.6410 H         1    LIG13    0.0000
     49 H13         3.1630  -18.2970    7.8990 H         1    LIG13    0.0000
     50 H14        -1.0120  -18.1990    6.3790 H         1    LIG13    0.0000
     51 H15        -3.3310  -17.9660    3.8740 H         1    LIG13    0.0000
     52 H16        -4.4410  -18.2230    5.8090 H         1    LIG13    0.0000
     53 H17        -3.0330  -19.1440    6.3770 H         1    LIG13    0.0000
     54 H18        -3.0860  -17.3730    6.5800 H         1    LIG13    0.0000
     55 H19         2.5790  -17.0700   -1.2160 H         1    LIG13    0.0000
     56 H20         0.3110  -16.9880   -1.2080 H         1    LIG13    0.0000
     57 H21         0.4220  -17.5960    0.4620 H         1    LIG13    0.0000
     58 H22         0.4860  -15.8460    0.1450 H         1    LIG13    0.0000
@<TRIPOS>BOND
     1    1    2 1
     2    1    6 2
     3    1   37 1
     4    2    3 2
     5    2   38 1
     6    3    4 1
     7    3   36 1
     8    4    5 2
     9    4   31 1
    10    5    6 1
    11    5   39 1
    12    6    7 1
    13    7    8 1
    14    7   40 1
    15    8    9 2
    16    8   13 1
    17    9   10 1
    18   10   11 2
    19   10   41 1
    20   11   12 1
    21   11   42 1
    22   12   13 2
    23   12   14 1
    24   14   15 1
    25   14   19 2
    26   15   16 2
    27   15   43 1
    28   16   17 1
    29   16   20 1
    30   17   18 2
    31   18   19 1
    32   18   44 1
    33   19   45 1
    34   20   21 2
    35   20   25 1
    36   21   22 1
    37   21   46 1
    38   22   23 2
    39   22   47 1
    40   23   24 1
    41   23   26 1
    42   24   25 2
    43   24   48 1
    44   25   49 1
    45   26   27 1
    46   26   50 1
    47   27   28 1
    48   27   29 2
    49   28   30 1
    50   28   51 1
    51   30   52 1
    52   30   53 1
    53   30   54 1
    54   31   32 1
    55   31   33 2
    56   31   34 2
    57   32   35 1
    58   32   55 1
    59   35   56 1
    60   35   57 1
    61   35   58 1
@<TRIPOS>SUBSTRUCTURE
     1    LIG13    1   GROUP 1   LIG 1
@<TRIPOS>MOLECULE
1174249
   69    74    1     0     0
SMALL
USER_CHARGES


@<TRIPOS>ATOM
      1 F1          4.0260    0.8800    2.6690 F         1    LIG14    0.0000
      2 C1          3.7400    1.4570    1.5360 C.2       1    LIG14    0.0000
      3 C2          3.0630    2.6980    1.4000 C.2       1    LIG14    0.0000
      4 N1          2.8570    3.1310    0.1260 N.2       1    LIG14    0.0000
      5 C3          3.2460    2.4830   -0.9980 C.2       1    LIG14    0.0000
      6 N2          3.8940    1.3080   -0.8530 N.2       1    LIG14    0.0000
      7 C4          4.1440    0.7860    0.3700 C.2       1    LIG14    0.0000
      8 N3          3.0350    2.9580   -2.2490 N.pl3     1    LIG14    0.0000
      9 C5          2.3940    4.1100   -2.5710 C.2       1    LIG14    0.0000
     10 N4          1.8270    4.9170   -1.6370 N.2       1    LIG14    0.0000
     11 C6          1.1870    6.0730   -1.9330 C.2       1    LIG14    0.0000
     12 C7          1.0930    6.5020   -3.2670 C.2       1    LIG14    0.0000
     13 C8          1.6630    5.6890   -4.2650 C.2       1    LIG14    0.0000
     14 C9          2.3110    4.4890   -3.9230 C.2       1    LIG14    0.0000
     15 C10         0.4130    7.7690   -3.5720 C.3       1    LIG14    0.0000
     16 O1          1.0550    8.8180   -2.8470 O.3       1    LIG14    0.0000
     17 C11         0.4610   10.1140   -2.8300 C.3       1    LIG14    0.0000
     18 C12        -0.8100   10.1240   -1.9620 C.3       1    LIG14    0.0000
     19 C13        -1.3470   11.5560   -1.8190 C.3       1    LIG14    0.0000
     20 N5         -0.3190   12.4340   -1.2270 N.3       1    LIG14    0.0000
     21 C14         0.8710   12.4910   -2.0980 C.3       1    LIG14    0.0000
     22 C15         1.4860   11.0920   -2.2390 C.3       1    LIG14    0.0000
     23 C16        -0.8670   13.7900   -1.0480 C.3       1    LIG14    0.0000
     24 C17         2.5820    3.5490    2.4570 C.2       1    LIG14    0.0000
     25 C18         1.9310    4.7670    2.1150 C.2       1    LIG14    0.0000
     26 C19         1.4690    5.6260    3.1210 C.2       1    LIG14    0.0000
     27 C20         1.6230    5.3210    4.4700 C.2       1    LIG14    0.0000
     28 N6          1.0980    6.3070    5.2270 N.2       1    LIG14    0.0000
     29 C21         0.6340    7.1930    4.3270 C.2       1    LIG14    0.0000
     30 N7          0.8440    6.8070    3.0800 N.pl3     1    LIG14    0.0000
     31 C22         0.3730    7.6890    2.0810 C.3       1    LIG14    0.0000
     32 C23        -0.2190    8.8450    2.9410 C.3       1    LIG14    0.0000
     33 C24        -0.0450    8.4700    4.4330 C.3       1    LIG14    0.0000
     34 C25        -0.7210    7.0160    1.2330 C.3       1    LIG14    0.0000
     35 C26         1.5280    8.1940    1.1960 C.3       1    LIG14    0.0000
     36 C27         2.2530    4.1280    4.8520 C.2       1    LIG14    0.0000
     37 C28         2.7240    3.2580    3.8450 C.2       1    LIG14    0.0000
     38 F2          2.4050    3.8260    6.1110 F         1    LIG14    0.0000
     39 H1          4.6360   -0.1060    0.4380 H         1    LIG14    0.0000
     40 H2          3.3850    2.4270   -2.9790 H         1    LIG14    0.0000
     41 H3          0.7840    6.6360   -1.1870 H         1    LIG14    0.0000
     42 H4          1.6100    5.9710   -5.2440 H         1    LIG14    0.0000
     43 H5          2.7230    3.9050   -4.6520 H         1    LIG14    0.0000
     44 H6          0.4530    7.9910   -4.6400 H         1    LIG14    0.0000
     45 H7         -0.6310    7.6860   -3.2680 H         1    LIG14    0.0000
     46 H8          0.2150   10.4230   -3.8470 H         1    LIG14    0.0000
     47 H9         -1.5780    9.5050   -2.4240 H         1    LIG14    0.0000
     48 H10        -0.5780    9.7270   -0.9730 H         1    LIG14    0.0000
     49 H11        -2.2230   11.5330   -1.1700 H         1    LIG14    0.0000
     50 H12        -1.6440   11.9300   -2.8010 H         1    LIG14    0.0000
     51 H13         1.6160   13.1530   -1.6550 H         1    LIG14    0.0000
     52 H14         0.6020   12.8700   -3.0850 H         1    LIG14    0.0000
     53 H15         1.8020   10.7370   -1.2570 H         1    LIG14    0.0000
     54 H16         2.3560   11.1430   -2.8950 H         1    LIG14    0.0000
     55 H17        -0.1120   14.4350   -0.5960 H         1    LIG14    0.0000
     56 H18        -1.1670   14.2110   -2.0090 H         1    LIG14    0.0000
     57 H19        -1.7340   13.7520   -0.3870 H         1    LIG14    0.0000
     58 H20         1.7920    5.0390    1.1410 H         1    LIG14    0.0000
     59 H21        -1.2790    8.9860    2.7220 H         1    LIG14    0.0000
     60 H22         0.3070    9.7800    2.7400 H         1    LIG14    0.0000
     61 H23         0.5790    9.1970    4.9540 H         1    LIG14    0.0000
     62 H24        -1.0090    8.3550    4.9280 H         1    LIG14    0.0000
     63 H25        -1.0920    7.7170    0.4850 H         1    LIG14    0.0000
     64 H26        -0.3180    6.1370    0.7310 H         1    LIG14    0.0000
     65 H27        -1.5470    6.7070    1.8750 H         1    LIG14    0.0000
     66 H28         1.1490    8.9130    0.4700 H         1    LIG14    0.0000
     67 H29         2.2840    8.6770    1.8160 H         1    LIG14    0.0000
     68 H30         1.9870    7.3600    0.6660 H         1    LIG14    0.0000
     69 H31         3.1770    2.4030    4.1550 H         1    LIG14    0.0000
@<TRIPOS>BOND
     1    1    2 1
     2    2    3 2
     3    2    7 1
     4    3    4 1
     5    3   24 1
     6    4    5 2
     7    5    6 1
     8    5    8 1
     9    6    7 2
    10    7   39 1
    11    8    9 1
    12    8   40 1
    13    9   10 2
    14    9   14 1
    15   10   11 1
    16   11   12 2
    17   11   41 1
    18   12   13 1
    19   12   15 1
    20   13   14 2
    21   13   42 1
    22   14   43 1
    23   15   16 1
    24   15   44 1
    25   15   45 1
    26   16   17 1
    27   17   18 1
    28   17   22 1
    29   17   46 1
    30   18   19 1
    31   18   47 1
    32   18   48 1
    33   19   20 1
    34   19   49 1
    35   19   50 1
    36   20   21 1
    37   20   23 1
    38   21   22 1
    39   21   51 1
    40   21   52 1
    41   22   53 1
    42   22   54 1
    43   23   55 1
    44   23   56 1
    45   23   57 1
    46   24   25 1
    47   24   37 2
    48   25   26 2
    49   25   58 1
    50   26   27 1
    51   26   30 1
    52   27   28 1
    53   27   36 2
    54   28   29 2
    55   29   30 1
    56   29   33 1
    57   30   31 1
    58   31   32 1
    59   31   34 1
    60   31   35 1
    61   32   33 1
    62   32   59 1
    63   32   60 1
    64   33   61 1
    65   33   62 1
    66   34   63 1
    67   34   64 1
    68   34   65 1
    69   35   66 1
    70   35   67 1
    71   35   68 1
    72   36   37 1
    73   36   38 1
    74   37   69 1
@<TRIPOS>SUBSTRUCTURE
     1    LIG14    1   GROUP 1   LIG 1
@<TRIPOS>MOLECULE
267679
   57    59    1     0     0
SMALL
USER_CHARGES


@<TRIPOS>ATOM
      1 N1         -1.2610   -9.7020    0.7620 N.2       1    LIG15    0.0000
      2 C1         -1.4460  -10.9650    0.2890 C.2       1    LIG15    0.0000
      3 N2         -0.4010  -11.8310    0.2560 N.2       1    LIG15    0.0000
      4 C2         -0.0580   -9.2550    1.2130 C.2       1    LIG15    0.0000
      5 C3          1.0240  -10.1440    1.1830 C.2       1    LIG15    0.0000
      6 C4          0.8120  -11.4250    0.6970 C.2       1    LIG15    0.0000
      7 N3          1.9810  -12.0770    0.7690 N.pl3     1    LIG15    0.0000
      8 C5          2.8720  -11.2040    1.2870 C.2       1    LIG15    0.0000
      9 N4          2.3060  -10.0090    1.5490 N.2       1    LIG15    0.0000
     10 N5          0.1010   -7.9980    1.6750 N.pl3     1    LIG15    0.0000
     11 C6         -0.9620   -7.0560    1.7210 C.3       1    LIG15    0.0000
     12 C7         -0.4870   -5.7800    2.2850 C.2       1    LIG15    0.0000
     13 C8          2.2260  -13.4280    0.3770 C.3       1    LIG15    0.0000
     14 C9          3.2780  -13.4930   -0.7420 C.3       1    LIG15    0.0000
     15 C10         2.6800  -14.2730    1.5790 C.3       1    LIG15    0.0000
     16 N6         -2.6450  -11.3880   -0.1560 N.pl3     1    LIG15    0.0000
     17 C11        -3.8270  -10.5910   -0.1780 C.3       1    LIG15    0.0000
     18 C12        -4.3150  -10.4490   -1.6420 C.3       1    LIG15    0.0000
     19 C13        -4.8840  -11.2610    0.7240 C.3       1    LIG15    0.0000
     20 C14        -4.3850  -11.4120    2.1690 C.3       1    LIG15    0.0000
     21 O1         -4.5850  -11.7350   -2.1890 O.3       1    LIG15    0.0000
     22 C15        -0.0380   -5.7090    3.6170 C.2       1    LIG15    0.0000
     23 N7          0.3930   -4.5280    4.1280 N.2       1    LIG15    0.0000
     24 C16         0.4150   -3.3810    3.4050 C.2       1    LIG15    0.0000
     25 C17        -0.0220   -3.3910    2.0720 C.2       1    LIG15    0.0000
     26 C18        -0.4750   -4.5990    1.5170 C.2       1    LIG15    0.0000
     27 C19        -5.5980   -9.6030   -1.7330 C.3       1    LIG15    0.0000
     28 C20        -3.2280   -9.7770   -2.5000 C.3       1    LIG15    0.0000
     29 H1          3.8550  -11.4200    1.4600 H         1    LIG15    0.0000
     30 H2          0.9820   -7.7310    1.9840 H         1    LIG15    0.0000
     31 H3         -1.3470   -6.9060    0.7100 H         1    LIG15    0.0000
     32 H4         -1.7700   -7.4430    2.3460 H         1    LIG15    0.0000
     33 H5          1.3050  -13.8700   -0.0090 H         1    LIG15    0.0000
     34 H6          3.3990  -14.5260   -1.0690 H         1    LIG15    0.0000
     35 H7          2.9490  -12.8880   -1.5880 H         1    LIG15    0.0000
     36 H8          4.2360  -13.1180   -0.3820 H         1    LIG15    0.0000
     37 H9          2.7960  -15.3120    1.2710 H         1    LIG15    0.0000
     38 H10         3.6320  -13.9040    1.9620 H         1    LIG15    0.0000
     39 H11         1.9290  -14.2170    2.3680 H         1    LIG15    0.0000
     40 H12        -2.7090  -12.2960   -0.4900 H         1    LIG15    0.0000
     41 H13        -3.6400   -9.5890    0.2150 H         1    LIG15    0.0000
     42 H14        -5.7840  -10.6480    0.7450 H         1    LIG15    0.0000
     43 H15        -5.1360  -12.2460    0.3270 H         1    LIG15    0.0000
     44 H16        -5.1870  -11.8160    2.7880 H         1    LIG15    0.0000
     45 H17        -3.5340  -12.0920    2.2010 H         1    LIG15    0.0000
     46 H18        -4.0850  -10.4390    2.5580 H         1    LIG15    0.0000
     47 H19        -4.8900  -11.7210   -3.1200 H         1    LIG15    0.0000
     48 H20        -0.0360   -6.5440    4.2040 H         1    LIG15    0.0000
     49 H21         0.7480   -2.5150    3.8300 H         1    LIG15    0.0000
     50 H22        -0.0110   -2.5360    1.5160 H         1    LIG15    0.0000
     51 H23        -0.7950   -4.6170    0.5490 H         1    LIG15    0.0000
     52 H24        -5.8470   -9.4220   -2.7790 H         1    LIG15    0.0000
     53 H25        -6.4290  -10.1300   -1.2670 H         1    LIG15    0.0000
     54 H26        -5.4470   -8.6470   -1.2310 H         1    LIG15    0.0000
     55 H27        -3.5890   -9.6430   -3.5200 H         1    LIG15    0.0000
     56 H28        -2.9740   -8.8030   -2.0790 H         1    LIG15    0.0000
     57 H29        -2.3330  -10.3990   -2.5240 H         1    LIG15    0.0000
@<TRIPOS>BOND
     1    1    2 2
     2    1    4 1
     3    2    3 1
     4    2   16 1
     5    3    6 2
     6    4    5 2
     7    4   10 1
     8    5    6 1
     9    5    9 1
    10    6    7 1
    11    7    8 1
    12    7   13 1
    13    8    9 2
    14    8   29 1
    15   10   11 1
    16   10   30 1
    17   11   12 1
    18   11   31 1
    19   11   32 1
    20   12   22 2
    21   12   26 1
    22   13   14 1
    23   13   15 1
    24   13   33 1
    25   14   34 1
    26   14   35 1
    27   14   36 1
    28   15   37 1
    29   15   38 1
    30   15   39 1
    31   17   16 1
    32   16   40 1
    33   17   18 1
    34   17   19 1
    35   17   41 1
    36   18   21 1
    37   18   27 1
    38   18   28 1
    39   19   20 1
    40   19   42 1
    41   19   43 1
    42   20   44 1
    43   20   45 1
    44   20   46 1
    45   21   47 1
    46   22   23 1
    47   22   48 1
    48   23   24 2
    49   24   25 1
    50   24   49 1
    51   25   26 2
    52   25   50 1
    53   26   51 1
    54   27   52 1
    55   27   53 1
    56   27   54 1
    57   28   55 1
    58   28   56 1
    59   28   57 1
@<TRIPOS>SUBSTRUCTURE
     1    LIG15    1   GROUP 1   LIG 1
@<TRIPOS>MOLECULE
50502868
   61    68    1     0     0
SMALL
USER_CHARGES


@<TRIPOS>ATOM
      1 C1          0.8660   -0.1810   -4.1890 C.3       1    LIG16    0.0000
      2 C2          0.6550    0.2380   -6.4520 C.2       1    LIG16    0.0000
      3 N1          0.6100   -0.6960   -5.4880 N.am      1    LIG16    0.0000
      4 O1          0.4530   -0.0140   -7.6590 O.2       1    LIG16    0.0000
      5 C3          0.9550    1.4660   -5.8740 C.2       1    LIG16    0.0000
      6 C4          1.0920    1.2320   -4.5020 C.2       1    LIG16    0.0000
      7 C5          1.1030    2.7790   -6.3800 C.2       1    LIG16    0.0000
      8 C6          1.4280    3.8340   -5.5060 C.2       1    LIG16    0.0000
      9 C7          1.2050    4.7220   -7.4820 C.2       1    LIG16    0.0000
     10 C8          0.9680    3.3530   -7.6430 C.2       1    LIG16    0.0000
     11 C9          1.1360    5.5970   -8.5810 C.2       1    LIG16    0.0000
     12 C10         0.8230    5.0730   -9.8500 C.2       1    LIG16    0.0000
     13 C11         0.5820    3.6940  -10.0110 C.2       1    LIG16    0.0000
     14 C12         0.6510    2.8220   -8.9070 C.2       1    LIG16    0.0000
     15 N2          1.4860    4.9940   -6.1890 N.pl3     1    LIG16    0.0000
     16 C13         1.5730    3.6020   -4.1200 C.2       1    LIG16    0.0000
     17 C14         1.3780    2.3030   -3.6350 C.2       1    LIG16    0.0000
     18 C15         1.7180    3.7240   -1.9480 C.2       1    LIG16    0.0000
     19 C16         1.4830    2.3790   -2.2580 C.2       1    LIG16    0.0000
     20 C17         1.8110    4.0980   -0.5900 C.2       1    LIG16    0.0000
     21 C18         1.3610    1.3870   -1.2700 C.2       1    LIG16    0.0000
     22 C19         1.4750    1.7700    0.0780 C.2       1    LIG16    0.0000
     23 C20         1.6940    3.1200    0.4160 C.2       1    LIG16    0.0000
     24 N3          1.8070    4.4600   -3.0930 N.pl3     1    LIG16    0.0000
     25 C21         0.6140    7.1800   -5.4020 C.3       1    LIG16    0.0000
     26 C22         1.8300    6.2760   -5.6690 C.3       1    LIG16    0.0000
     27 C23         2.1150    5.8710   -3.2230 C.3       1    LIG16    0.0000
     28 C24         0.9100    6.8050   -2.9290 C.3       1    LIG16    0.0000
     29 O2          2.6520    6.1880   -4.5110 O.3       1    LIG16    0.0000
     30 C25        -0.1130    6.8410   -4.0860 C.3       1    LIG16    0.0000
     31 N4         -0.8950    5.5930   -4.1280 N.3       1    LIG16    0.0000
     32 C26        -2.0220    5.6500   -5.0670 C.3       1    LIG16    0.0000
     33 O3          0.2880    6.4340   -1.6960 O.3       1    LIG16    0.0000
     34 C27        -0.7310    7.2740   -1.1600 C.3       1    LIG16    0.0000
     35 C28         3.3020    6.2880   -2.3240 C.3       1    LIG16    0.0000
     36 H1          1.7550   -0.6380   -3.7530 H         1    LIG16    0.0000
     37 H2         -0.0010   -0.3110   -3.5400 H         1    LIG16    0.0000
     38 H3          0.4150   -1.6290   -5.6650 H         1    LIG16    0.0000
     39 H4          1.3080    6.5960   -8.4650 H         1    LIG16    0.0000
     40 H5          0.7700    5.6950  -10.6570 H         1    LIG16    0.0000
     41 H6          0.3550    3.3240  -10.9340 H         1    LIG16    0.0000
     42 H7          0.4730    1.8310   -9.0390 H         1    LIG16    0.0000
     43 H8          1.9400    5.0670   -0.3180 H         1    LIG16    0.0000
     44 H9          1.1900    0.4120   -1.5170 H         1    LIG16    0.0000
     45 H10         1.3900    1.0690    0.8150 H         1    LIG16    0.0000
     46 H11         1.7610    3.3920    1.3970 H         1    LIG16    0.0000
     47 H12         0.9790    8.2040   -5.3210 H         1    LIG16    0.0000
     48 H13        -0.0750    7.1380   -6.2440 H         1    LIG16    0.0000
     49 H14         2.4470    6.7800   -6.4160 H         1    LIG16    0.0000
     50 H15         1.2990    7.8180   -2.8170 H         1    LIG16    0.0000
     51 H16        -0.8060    7.6580   -3.8850 H         1    LIG16    0.0000
     52 H17        -0.2790    4.8470   -4.4390 H         1    LIG16    0.0000
     53 H18        -2.6290    4.7530   -4.9400 H         1    LIG16    0.0000
     54 H19        -2.6380    6.5270   -4.8650 H         1    LIG16    0.0000
     55 H20        -1.6610    5.6820   -6.0940 H         1    LIG16    0.0000
     56 H21        -1.0220    6.8960   -0.1800 H         1    LIG16    0.0000
     57 H22        -0.3570    8.2920   -1.0550 H         1    LIG16    0.0000
     58 H23        -1.6040    7.2690   -1.8130 H         1    LIG16    0.0000
     59 H24         3.7660    7.1940   -2.7190 H         1    LIG16    0.0000
     60 H25         2.9720    6.5110   -1.3130 H         1    LIG16    0.0000
     61 H26         4.0510    5.4950   -2.3010 H         1    LIG16    0.0000
@<TRIPOS>BOND
     1    1    3 1
     2    1    6 1
     3    1   36 1
     4    1   37 1
     5    2    3 1
     6    2    4 2
     7    2    5 1
     8    3   38 1
     9    5    6 2
    10    5    7 1
    11    6   17 1
    12    7    8 2
    13    7   10 1
    14    8   15 1
    15    8   16 1
    16    9   10 2
    17    9   11 1
    18    9   15 1
    19   10   14 1
    20   11   12 2
    21   11   39 1
    22   12   13 1
    23   12   40 1
    24   13   14 2
    25   13   41 1
    26   14   42 1
    27   15   26 1
    28   16   17 2
    29   16   24 1
    30   17   19 1
    31   18   19 1
    32   18   20 2
    33   18   24 1
    34   19   21 2
    35   20   23 1
    36   20   43 1
    37   21   22 1
    38   21   44 1
    39   22   23 2
    40   22   45 1
    41   23   46 1
    42   24   27 1
    43   25   26 1
    44   25   30 1
    45   25   47 1
    46   25   48 1
    47   26   29 1
    48   26   49 1
    49   27   28 1
    50   27   29 1
    51   27   35 1
    52   28   30 1
    53   28   33 1
    54   28   50 1
    55   30   31 1
    56   30   51 1
    57   31   32 1
    58   31   52 1
    59   32   53 1
    60   32   54 1
    61   32   55 1
    62   33   34 1
    63   34   56 1
    64   34   57 1
    65   34   58 1
    66   35   59 1
    67   35   60 1
    68   35   61 1
@<TRIPOS>SUBSTRUCTURE
     1    LIG16    1   GROUP 1   LIG 1
@<TRIPOS>MOLECULE
50506080
   61    65    1     0     0
SMALL
USER_CHARGES


@<TRIPOS>ATOM
      1 N1          7.7750   -8.2520    1.2060 N.2       1    LIG17    0.0000
      2 C1          6.5590   -8.1850    0.6370 C.2       1    LIG17    0.0000
      3 C2          6.2780   -9.3650   -0.0520 C.2       1    LIG17    0.0000
      4 N2          8.2740   -9.4120    0.9290 N.pl3     1    LIG17    0.0000
      5 C3          7.4170  -10.1360    0.1800 C.2       1    LIG17    0.0000
      6 C4          7.7660  -11.4460   -0.1770 C.2       1    LIG17    0.0000
      7 C5          9.0190  -11.9270    0.2360 C.2       1    LIG17    0.0000
      8 C6          9.8690  -11.1030    0.9940 C.2       1    LIG17    0.0000
      9 N3          9.4400   -9.8550    1.3190 N.2       1    LIG17    0.0000
     10 C7          5.1110   -9.6780   -0.7950 C.2       1    LIG17    0.0000
     11 C8          3.9800   -8.8370   -0.7900 C.2       1    LIG17    0.0000
     12 C9          2.8510   -9.2370   -1.5140 C.2       1    LIG17    0.0000
     13 N4          2.8730  -10.3910   -2.2170 N.2       1    LIG17    0.0000
     14 C10         3.9670  -11.1840   -2.2610 C.2       1    LIG17    0.0000
     15 N5          5.0580  -10.8150   -1.5390 N.2       1    LIG17    0.0000
     16 N6          3.8670  -12.3120   -3.0080 N.pl3     1    LIG17    0.0000
     17 C11         4.8300  -13.2090   -3.3620 C.2       1    LIG17    0.0000
     18 C12         6.2170  -13.0310   -3.1940 C.2       1    LIG17    0.0000
     19 C13         7.1250  -14.0260   -3.5900 C.2       1    LIG17    0.0000
     20 C14         6.6950  -15.2390   -4.1810 C.2       1    LIG17    0.0000
     21 C15         5.3000  -15.3880   -4.3670 C.2       1    LIG17    0.0000
     22 C16         4.3880  -14.3930   -3.9760 C.2       1    LIG17    0.0000
     23 N7          7.5960  -16.2270   -4.5550 N.pl3     1    LIG17    0.0000
     24 C17         9.0150  -16.0240   -4.6660 C.3       1    LIG17    0.0000
     25 C18         9.7410  -16.9340   -3.6650 C.3       1    LIG17    0.0000
     26 N8          9.4150  -18.3410   -3.9640 N.3       1    LIG17    0.0000
     27 C19         7.9540  -18.5380   -3.8920 C.3       1    LIG17    0.0000
     28 C20         7.2270  -17.5850   -4.8560 C.3       1    LIG17    0.0000
     29 C21        10.0920  -19.2290   -3.0040 C.3       1    LIG17    0.0000
     30 O1         11.0780  -11.5840    1.3930 O.3       1    LIG17    0.0000
     31 C22        12.0120  -10.7490    2.0860 C.3       1    LIG17    0.0000
     32 C23        13.1130  -11.6500    2.6610 C.3       1    LIG17    0.0000
     33 C24        12.6410   -9.7150    1.1380 C.3       1    LIG17    0.0000
     34 H1          5.9440   -7.3730    0.6960 H         1    LIG17    0.0000
     35 H2          7.1310  -12.0430   -0.7020 H         1    LIG17    0.0000
     36 H3          9.3080  -12.8750   -0.0070 H         1    LIG17    0.0000
     37 H4          3.9570   -7.9670   -0.2570 H         1    LIG17    0.0000
     38 H5          2.0100   -8.6590   -1.5100 H         1    LIG17    0.0000
     39 H6          2.9750  -12.5060   -3.3340 H         1    LIG17    0.0000
     40 H7          6.5850  -12.1670   -2.8050 H         1    LIG17    0.0000
     41 H8          8.1100  -13.8510   -3.4130 H         1    LIG17    0.0000
     42 H9          4.9180  -16.2170   -4.8180 H         1    LIG17    0.0000
     43 H10         3.3910  -14.5420   -4.1340 H         1    LIG17    0.0000
     44 H11         9.3380  -14.9990   -4.5060 H         1    LIG17    0.0000
     45 H12         9.3300  -16.3020   -5.6730 H         1    LIG17    0.0000
     46 H13        10.8160  -16.7790   -3.7620 H         1    LIG17    0.0000
     47 H14         9.4320  -16.6750   -2.6500 H         1    LIG17    0.0000
     48 H15         7.7130  -19.5660   -4.1670 H         1    LIG17    0.0000
     49 H16         7.5990  -18.3530   -2.8760 H         1    LIG17    0.0000
     50 H17         6.1650  -17.7900   -4.7550 H         1    LIG17    0.0000
     51 H18         7.5220  -17.8200   -5.8790 H         1    LIG17    0.0000
     52 H19         9.8660  -20.2680   -3.2430 H         1    LIG17    0.0000
     53 H20        11.1710  -19.0830   -3.0680 H         1    LIG17    0.0000
     54 H21         9.7620  -19.0150   -1.9860 H         1    LIG17    0.0000
     55 H22        11.5210  -10.2350    2.9140 H         1    LIG17    0.0000
     56 H23        13.8380  -11.0440    3.2050 H         1    LIG17    0.0000
     57 H24        12.6690  -12.3750    3.3440 H         1    LIG17    0.0000
     58 H25        13.6170  -12.1800    1.8530 H         1    LIG17    0.0000
     59 H26        13.3950   -9.1370    1.6730 H         1    LIG17    0.0000
     60 H27        13.1070  -10.2250    0.2950 H         1    LIG17    0.0000
     61 H28        11.8730   -9.0360    0.7660 H         1    LIG17    0.0000
@<TRIPOS>BOND
     1    1    2 2
     2    1    4 1
     3    2    3 1
     4    2   34 1
     5    3    5 2
     6    3   10 1
     7    4    5 1
     8    4    9 1
     9    5    6 1
    10    6    7 2
    11    6   35 1
    12    7    8 1
    13    7   36 1
    14    8    9 2
    15    8   30 1
    16   10   11 2
    17   10   15 1
    18   11   12 1
    19   11   37 1
    20   12   13 2
    21   12   38 1
    22   13   14 1
    23   14   15 2
    24   14   16 1
    25   16   17 1
    26   16   39 1
    27   17   18 2
    28   17   22 1
    29   18   19 1
    30   18   40 1
    31   19   20 2
    32   19   41 1
    33   20   21 1
    34   20   23 1
    35   21   22 2
    36   21   42 1
    37   22   43 1
    38   23   24 1
    39   23   28 1
    40   24   25 1
    41   24   44 1
    42   24   45 1
    43   25   26 1
    44   25   46 1
    45   25   47 1
    46   26   27 1
    47   26   29 1
    48   27   28 1
    49   27   48 1
    50   27   49 1
    51   28   50 1
    52   28   51 1
    53   29   52 1
    54   29   53 1
    55   29   54 1
    56   30   31 1
    57   31   32 1
    58   31   33 1
    59   31   55 1
    60   32   56 1
    61   32   57 1
    62   32   58 1
    63   33   59 1
    64   33   60 1
    65   33   61 1
@<TRIPOS>SUBSTRUCTURE
     1    LIG17    1   GROUP 1   LIG 1
@<TRIPOS>MOLECULE
50505121
   55    59    1     0     0
SMALL
USER_CHARGES


@<TRIPOS>ATOM
      1 C1          2.0380   -5.8390   -2.3430 C.3       1    LIG18    0.0000
      2 C2          0.9580   -6.0780   -1.3800 C.2       1    LIG18    0.0000
      3 O1         -0.1580   -6.4010   -1.8440 O.2       1    LIG18    0.0000
      4 N1          1.1380   -5.9710   -0.0290 N.am      1    LIG18    0.0000
      5 C3          2.3900   -5.6070    0.5620 C.3       1    LIG18    0.0000
      6 C4          2.8720   -6.7440    1.4760 C.3       1    LIG18    0.0000
      7 C5          1.7980   -7.0730    2.5280 C.3       1    LIG18    0.0000
      8 C6          0.4700   -7.3930    1.8190 C.3       1    LIG18    0.0000
      9 C7          0.0730   -6.2340    0.8910 C.3       1    LIG18    0.0000
     10 N2          2.2240   -8.1760    3.3260 N.pl3     1    LIG18    0.0000
     11 N3          2.4730   -9.3530    2.8360 N.2       1    LIG18    0.0000
     12 C8          2.8950  -10.1520    3.8270 C.2       1    LIG18    0.0000
     13 C9          2.8990   -9.4290    5.0080 C.2       1    LIG18    0.0000
     14 C10         2.4680   -8.1550    4.6520 C.2       1    LIG18    0.0000
     15 N4          3.3260   -9.8910    6.2040 N.pl3     1    LIG18    0.0000
     16 C11         2.6190   -9.8460    7.3550 C.2       1    LIG18    0.0000
     17 N5          1.3550   -9.3680    7.4390 N.2       1    LIG18    0.0000
     18 C12         0.6290   -9.2980    8.5850 C.2       1    LIG18    0.0000
     19 C13         1.2530   -9.7720    9.7740 C.2       1    LIG18    0.0000
     20 C14         2.5620  -10.2750    9.6680 C.2       1    LIG18    0.0000
     21 N6          3.2040  -10.3000    8.4810 N.2       1    LIG18    0.0000
     22 Cl1         0.5570   -9.8650   11.3180 Cl        1    LIG18    0.0000
     23 C15        -0.6830   -8.7420    8.4530 C.2       1    LIG18    0.0000
     24 C16        -1.3960   -8.4690    7.2780 C.2       1    LIG18    0.0000
     25 N7         -2.5930   -7.9380    7.6160 N.pl3     1    LIG18    0.0000
     26 N8         -2.7040   -7.8410    8.8990 N.2       1    LIG18    0.0000
     27 C17        -1.5740   -8.3190    9.4440 C.2       1    LIG18    0.0000
     28 C18        -3.5390   -7.5710    6.7160 C.2       1    LIG18    0.0000
     29 C19        -3.2780   -7.7590    5.3490 C.2       1    LIG18    0.0000
     30 C20        -2.0490   -8.3210    4.9600 C.2       1    LIG18    0.0000
     31 C21        -1.0880   -8.6830    5.9200 C.2       1    LIG18    0.0000
     32 C22         2.3430   -6.9820    5.5270 C.3       1    LIG18    0.0000
     33 H1          2.8540   -6.5380   -2.1570 H         1    LIG18    0.0000
     34 H2          1.6720   -5.9840   -3.3600 H         1    LIG18    0.0000
     35 H3          2.4010   -4.8170   -2.2400 H         1    LIG18    0.0000
     36 H4          3.1690   -5.4080   -0.1740 H         1    LIG18    0.0000
     37 H5          2.2520   -4.7050    1.1600 H         1    LIG18    0.0000
     38 H6          3.0750   -7.6280    0.8680 H         1    LIG18    0.0000
     39 H7          3.7910   -6.4390    1.9780 H         1    LIG18    0.0000
     40 H8          1.6450   -6.1870    3.1460 H         1    LIG18    0.0000
     41 H9          0.5760   -8.3050    1.2290 H         1    LIG18    0.0000
     42 H10        -0.3110   -7.5410    2.5640 H         1    LIG18    0.0000
     43 H11        -0.1060   -5.3420    1.4930 H         1    LIG18    0.0000
     44 H12        -0.8590   -6.4990    0.3900 H         1    LIG18    0.0000
     45 H13         3.1740  -11.1280    3.7240 H         1    LIG18    0.0000
     46 H14         4.1990  -10.3100    6.2380 H         1    LIG18    0.0000
     47 H15         3.0490  -10.6370   10.4900 H         1    LIG18    0.0000
     48 H16        -1.4100   -8.3240   10.4460 H         1    LIG18    0.0000
     49 H17        -4.4270   -7.1720    7.0250 H         1    LIG18    0.0000
     50 H18        -3.9740   -7.4990    4.6490 H         1    LIG18    0.0000
     51 H19        -1.8560   -8.4740    3.9700 H         1    LIG18    0.0000
     52 H20        -0.2070   -9.0980    5.6240 H         1    LIG18    0.0000
     53 H21         2.6670   -7.2110    6.5420 H         1    LIG18    0.0000
     54 H22         2.9610   -6.1740    5.1360 H         1    LIG18    0.0000
     55 H23         1.3010   -6.6610    5.5500 H         1    LIG18    0.0000
@<TRIPOS>BOND
     1    1    2 1
     2    1   33 1
     3    1   34 1
     4    1   35 1
     5    2    3 2
     6    2    4 1
     7    4    5 1
     8    4    9 1
     9    5    6 1
    10    5   36 1
    11    5   37 1
    12    6    7 1
    13    6   38 1
    14    6   39 1
    15    7    8 1
    16    7   10 1
    17    7   40 1
    18    8    9 1
    19    8   41 1
    20    8   42 1
    21    9   43 1
    22    9   44 1
    23   10   11 1
    24   10   14 1
    25   11   12 2
    26   12   13 1
    27   12   45 1
    28   13   14 2
    29   13   15 1
    30   14   32 1
    31   15   16 1
    32   15   46 1
    33   16   17 2
    34   16   21 1
    35   17   18 1
    36   18   19 2
    37   18   23 1
    38   19   20 1
    39   19   22 1
    40   20   21 2
    41   20   47 1
    42   23   24 2
    43   23   27 1
    44   24   25 1
    45   24   31 1
    46   25   26 1
    47   25   28 1
    48   26   27 2
    49   27   48 1
    50   28   29 2
    51   28   49 1
    52   29   30 1
    53   29   50 1
    54   30   31 2
    55   30   51 1
    56   31   52 1
    57   32   53 1
    58   32   54 1
    59   32   55 1
@<TRIPOS>SUBSTRUCTURE
     1    LIG18    1   GROUP 1   LIG 1
@<TRIPOS>MOLECULE
50914675
   72    77    1     0     0
SMALL
USER_CHARGES


@<TRIPOS>ATOM
      1 C1         -3.0980   -7.2950   -0.1880 C.2       1    LIG19    0.0000
      2 C2         -2.9000   -8.6820   -0.0980 C.2       1    LIG19    0.0000
      3 C3         -2.2620   -9.2770    1.0170 C.2       1    LIG19    0.0000
      4 C4         -1.8290   -8.3970    2.0380 C.2       1    LIG19    0.0000
      5 C5         -2.0310   -7.0090    1.9540 C.2       1    LIG19    0.0000
      6 C6         -2.6670   -6.4350    0.8400 C.2       1    LIG19    0.0000
      7 N1         -2.8120   -5.0810    0.8660 N.pl3     1    LIG19    0.0000
      8 C7         -3.3550   -4.2320   -0.0430 C.2       1    LIG19    0.0000
      9 N2         -3.8800   -4.5710   -1.2500 N.2       1    LIG19    0.0000
     10 C8         -3.8570   -1.9580   -0.4850 C.2       1    LIG19    0.0000
     11 N3         -3.3540   -2.9270    0.3130 N.2       1    LIG19    0.0000
     12 C9         -4.4030   -2.2850   -1.7350 C.2       1    LIG19    0.0000
     13 C10        -4.4000   -3.6480   -2.1020 C.2       1    LIG19    0.0000
     14 C11        -5.5340   -1.6480   -3.9780 C.3       1    LIG19    0.0000
     15 C12        -4.9490   -1.2140   -2.6060 C.3       1    LIG19    0.0000
     16 C13        -5.8820   -3.8110   -5.3520 C.2       1    LIG19    0.0000
     17 C14        -5.4640   -3.0940   -4.2370 C.2       1    LIG19    0.0000
     18 C15        -4.9340   -4.0180   -3.3520 C.2       1    LIG19    0.0000
     19 N4         -5.0510   -5.2250   -3.9430 N.pl3     1    LIG19    0.0000
     20 N5         -5.6050   -5.1060   -5.1120 N.2       1    LIG19    0.0000
     21 C16        -6.4770   -3.3210   -6.5240 C.2       1    LIG19    0.0000
     22 N6         -6.8100   -4.1910   -7.5000 N.am      1    LIG19    0.0000
     23 O1         -6.6930   -2.0960   -6.6750 O.2       1    LIG19    0.0000
     24 C17        -4.6460   -6.4780   -3.4220 C.3       1    LIG19    0.0000
     25 N7         -2.0760  -10.6500    1.1070 N.pl3     1    LIG19    0.0000
     26 C18        -1.1700  -11.2830    2.0270 C.3       1    LIG19    0.0000
     27 C19        -0.1520  -12.1340    1.2470 C.3       1    LIG19    0.0000
     28 N8         -0.8450  -13.1220    0.3970 N.3       1    LIG19    0.0000
     29 C20        -1.7600  -12.4240   -0.5250 C.3       1    LIG19    0.0000
     30 C21        -2.7710  -11.6080    0.2910 C.3       1    LIG19    0.0000
     31 C22         0.1350  -13.9090   -0.3710 C.3       1    LIG19    0.0000
     32 C23        -7.4060   -3.7950   -8.7270 C.3       1    LIG19    0.0000
     33 C24        -7.6080   -4.9720   -9.5900 C.2       1    LIG19    0.0000
     34 C25        -6.4970   -5.7150  -10.0360 C.2       1    LIG19    0.0000
     35 C26        -6.7000   -6.8430  -10.8500 C.2       1    LIG19    0.0000
     36 N9         -7.9640   -7.1940  -11.1950 N.2       1    LIG19    0.0000
     37 C27        -9.0580   -6.5030  -10.7900 C.2       1    LIG19    0.0000
     38 C28        -8.9030   -5.3700   -9.9770 C.2       1    LIG19    0.0000
     39 C29        -5.5640   -7.6400  -11.3240 C.3       1    LIG19    0.0000
     40 H1         -3.5570   -6.9240   -1.0120 H         1    LIG19    0.0000
     41 H2         -3.2100   -9.2480   -0.8850 H         1    LIG19    0.0000
     42 H3         -1.3880   -8.7530    2.8820 H         1    LIG19    0.0000
     43 H4         -1.7120   -6.4150    2.7210 H         1    LIG19    0.0000
     44 H5         -2.4730   -4.6470    1.6640 H         1    LIG19    0.0000
     45 H6         -3.8350   -0.9870   -0.1730 H         1    LIG19    0.0000
     46 H7         -6.5790   -1.3390   -4.0240 H         1    LIG19    0.0000
     47 H8         -4.9890   -1.1290   -4.7680 H         1    LIG19    0.0000
     48 H9         -5.7380   -0.7000   -2.0550 H         1    LIG19    0.0000
     49 H10        -4.1520   -0.4930   -2.7970 H         1    LIG19    0.0000
     50 H11        -6.6270   -5.1330   -7.3520 H         1    LIG19    0.0000
     51 H12        -4.8610   -7.2700   -4.1400 H         1    LIG19    0.0000
     52 H13        -3.5740   -6.4630   -3.2240 H         1    LIG19    0.0000
     53 H14        -5.1910   -6.6820   -2.5000 H         1    LIG19    0.0000
     54 H15        -1.7340  -11.9330    2.6980 H         1    LIG19    0.0000
     55 H16        -0.5950  -10.5870    2.6330 H         1    LIG19    0.0000
     56 H17         0.4650  -11.4760    0.6320 H         1    LIG19    0.0000
     57 H18         0.4900  -12.6540    1.9590 H         1    LIG19    0.0000
     58 H19        -1.2040  -11.7560   -1.1850 H         1    LIG19    0.0000
     59 H20        -2.3000  -13.1550   -1.1280 H         1    LIG19    0.0000
     60 H21        -3.3140  -12.2910    0.9470 H         1    LIG19    0.0000
     61 H22        -3.5000  -11.1760   -0.3880 H         1    LIG19    0.0000
     62 H23        -0.3870  -14.6460   -0.9830 H         1    LIG19    0.0000
     63 H24         0.7250  -13.2580   -1.0180 H         1    LIG19    0.0000
     64 H25         0.8030  -14.4330    0.3140 H         1    LIG19    0.0000
     65 H26        -8.3590   -3.3030   -8.5160 H         1    LIG19    0.0000
     66 H27        -6.7560   -3.0830   -9.2400 H         1    LIG19    0.0000
     67 H28        -5.5520   -5.4380   -9.7670 H         1    LIG19    0.0000
     68 H29        -9.9890   -6.8060  -11.0760 H         1    LIG19    0.0000
     69 H30        -9.7220   -4.8460   -9.6680 H         1    LIG19    0.0000
     70 H31        -5.9200   -8.4680  -11.9380 H         1    LIG19    0.0000
     71 H32        -4.8990   -7.0150  -11.9210 H         1    LIG19    0.0000
     72 H33        -5.0150   -8.0410  -10.4710 H         1    LIG19    0.0000
@<TRIPOS>BOND
     1    1    2 2
     2    1    6 1
     3    1   40 1
     4    2    3 1
     5    2   41 1
     6    3    4 2
     7    3   25 1
     8    4    5 1
     9    4   42 1
    10    5    6 2
    11    5   43 1
    12    6    7 1
    13    7    8 1
    14    7   44 1
    15    8    9 2
    16    8   11 1
    17    9   13 1
    18   10   11 2
    19   10   12 1
    20   10   45 1
    21   12   13 2
    22   12   15 1
    23   13   18 1
    24   14   15 1
    25   14   17 1
    26   14   46 1
    27   14   47 1
    28   15   48 1
    29   15   49 1
    30   16   17 1
    31   16   20 2
    32   16   21 1
    33   17   18 2
    34   18   19 1
    35   19   20 1
    36   19   24 1
    37   21   22 1
    38   21   23 2
    39   22   32 1
    40   22   50 1
    41   24   51 1
    42   24   52 1
    43   24   53 1
    44   25   26 1
    45   25   30 1
    46   26   27 1
    47   26   54 1
    48   26   55 1
    49   27   28 1
    50   27   56 1
    51   27   57 1
    52   28   29 1
    53   28   31 1
    54   29   30 1
    55   29   58 1
    56   29   59 1
    57   30   60 1
    58   30   61 1
    59   31   62 1
    60   31   63 1
    61   31   64 1
    62   32   33 1
    63   32   65 1
    64   32   66 1
    65   33   34 2
    66   33   38 1
    67   34   35 1
    68   34   67 1
    69   35   36 2
    70   35   39 1
    71   36   37 1
    72   37   38 2
    73   37   68 1
    74   38   69 1
    75   39   70 1
    76   39   71 1
    77   39   72 1
@<TRIPOS>SUBSTRUCTURE
     1    LIG19    1   GROUP 1   LIG 1
@<TRIPOS>MOLECULE
907156
   49    53    1     0     0
SMALL
USER_CHARGES


@<TRIPOS>ATOM
      1 N1         -2.2600   -0.0960    0.2790 N.2       1    LIG20    0.0000
      2 C1         -2.0550   -1.4340    0.1880 C.2       1    LIG20    0.0000
      3 C2         -1.0020   -2.0310    0.9080 C.2       1    LIG20    0.0000
      4 C3         -0.2150   -1.2130    1.7380 C.2       1    LIG20    0.0000
      5 C4         -0.4630    0.1650    1.8160 C.2       1    LIG20    0.0000
      6 C5         -1.5080    0.7230    1.0590 C.2       1    LIG20    0.0000
      7 C6         -2.9480   -2.2320   -0.6610 C.3       1    LIG20    0.0000
      8 C7         -2.8100   -3.7470   -0.4210 C.3       1    LIG20    0.0000
      9 N2         -1.3900   -4.1200   -0.3490 N.3       1    LIG20    0.0000
     10 C8         -0.7390   -3.4810    0.8110 C.3       1    LIG20    0.0000
     11 N3         -1.7230    2.0550    1.1630 N.pl3     1    LIG20    0.0000
     12 C9         -2.6630    2.7900    0.5280 C.2       1    LIG20    0.0000
     13 N4         -3.5550    2.3190   -0.3810 N.2       1    LIG20    0.0000
     14 C10        -4.5020    3.0820   -1.0040 C.2       1    LIG20    0.0000
     15 C11        -4.5270    4.4620   -0.6600 C.2       1    LIG20    0.0000
     16 C12        -3.5990    4.9370    0.2780 C.2       1    LIG20    0.0000
     17 N5         -2.7020    4.1010    0.8400 N.2       1    LIG20    0.0000
     18 F1         -5.3250    5.3570   -1.1700 F         1    LIG20    0.0000
     19 C13        -5.3690    2.4280   -1.9500 C.2       1    LIG20    0.0000
     20 C14        -6.4870    3.0650   -2.5630 C.2       1    LIG20    0.0000
     21 C15        -7.3050    2.4150   -3.5080 C.2       1    LIG20    0.0000
     22 C16        -7.0020    1.0920   -3.8510 C.2       1    LIG20    0.0000
     23 C17        -5.9320    0.4310   -3.2660 C.2       1    LIG20    0.0000
     24 C18        -5.1180    1.0740   -2.3150 C.2       1    LIG20    0.0000
     25 F2         -8.3180    3.0330   -4.0480 F         1    LIG20    0.0000
     26 N6         -7.6030    0.2680   -4.7180 N.2       1    LIG20    0.0000
     27 C19        -6.9150   -0.8890   -4.6750 C.2       1    LIG20    0.0000
     28 N7         -5.8910   -0.8040   -3.7920 N.pl3     1    LIG20    0.0000
     29 C20        -7.2990   -2.0350   -5.5050 C.3       1    LIG20    0.0000
     30 C21        -4.9330   -1.8020   -3.4570 C.3       1    LIG20    0.0000
     31 H1          0.5460   -1.6210    2.2820 H         1    LIG20    0.0000
     32 H2          0.1130    0.7540    2.4190 H         1    LIG20    0.0000
     33 H3         -3.9780   -1.9450   -0.4530 H         1    LIG20    0.0000
     34 H4         -2.7190   -2.0090   -1.7030 H         1    LIG20    0.0000
     35 H5         -3.2830   -4.2830   -1.2440 H         1    LIG20    0.0000
     36 H6         -3.3090   -4.0210    0.5100 H         1    LIG20    0.0000
     37 H7         -0.9440   -3.7420   -1.1880 H         1    LIG20    0.0000
     38 H8          0.3350   -3.6450    0.7130 H         1    LIG20    0.0000
     39 H9         -1.0820   -3.9650    1.7270 H         1    LIG20    0.0000
     40 H10        -1.1430    2.5410    1.7690 H         1    LIG20    0.0000
     41 H11        -3.5910    5.9240    0.5380 H         1    LIG20    0.0000
     42 H12        -6.7450    4.0170   -2.3250 H         1    LIG20    0.0000
     43 H13        -4.3370    0.5570   -1.9090 H         1    LIG20    0.0000
     44 H14        -6.6520   -2.8920   -5.3340 H         1    LIG20    0.0000
     45 H15        -8.3260   -2.3160   -5.2720 H         1    LIG20    0.0000
     46 H16        -7.2380   -1.7500   -6.5560 H         1    LIG20    0.0000
     47 H17        -5.0500   -2.7050   -4.0530 H         1    LIG20    0.0000
     48 H18        -3.9270   -1.4120   -3.6220 H         1    LIG20    0.0000
     49 H19        -5.0500   -2.0680   -2.4070 H         1    LIG20    0.0000
@<TRIPOS>BOND
     1    1    2 2
     2    1    6 1
     3    2    3 1
     4    2    7 1
     5    3    4 2
     6    3   10 1
     7    4    5 1
     8    4   31 1
     9    5    6 2
    10    5   32 1
    11    6   11 1
    12    7    8 1
    13    7   33 1
    14    7   34 1
    15    8    9 1
    16    8   35 1
    17    8   36 1
    18    9   10 1
    19    9   37 1
    20   10   38 1
    21   10   39 1
    22   11   12 1
    23   11   40 1
    24   12   13 2
    25   12   17 1
    26   13   14 1
    27   14   15 2
    28   14   19 1
    29   15   16 1
    30   15   18 1
    31   16   17 2
    32   16   41 1
    33   19   20 2
    34   19   24 1
    35   20   21 1
    36   20   42 1
    37   21   22 2
    38   21   25 1
    39   22   23 1
    40   22   26 1
    41   23   24 2
    42   23   28 1
    43   24   43 1
    44   26   27 2
    45   27   28 1
    46   27   29 1
    47   28   30 1
    48   29   44 1
    49   29   45 1
    50   29   46 1
    51   30   47 1
    52   30   48 1
    53   30   49 1
@<TRIPOS>SUBSTRUCTURE
     1    LIG20    1   GROUP 1   LIG 1
@<TRIPOS>MOLECULE
327538
   46    48    1     0     0
SMALL
USER_CHARGES


@<TRIPOS>ATOM
      1 C1         -1.7020    1.3220    0.2380 C.2       1    LIG21    0.0000
      2 C2         -1.9290   -0.0420    0.5120 C.2       1    LIG21    0.0000
      3 C3         -0.8240   -0.9050    0.6390 C.2       1    LIG21    0.0000
      4 C4          0.4960   -0.4180    0.5330 C.2       1    LIG21    0.0000
      5 C5          0.7020    0.9440    0.2440 C.2       1    LIG21    0.0000
      6 C6         -0.3930    1.8120    0.0990 C.2       1    LIG21    0.0000
      7 C7         -3.2970   -0.5660    0.6700 C.3       1    LIG21    0.0000
      8 S1         -3.5760   -1.2390    2.3230 S.3       1    LIG21    0.0000
      9 C8         -3.0530    0.0210    3.4970 C.3       1    LIG21    0.0000
     10 N1         -5.2100   -1.3120    2.5000 N.2       1    LIG21    0.0000
     11 O1         -2.6440   -2.5000    2.5810 O.2       1    LIG21    0.0000
     12 N2          1.5800   -1.2260    0.6680 N.pl3     1    LIG21    0.0000
     13 C9          1.7550   -2.1420    1.6510 C.2       1    LIG21    0.0000
     14 N3          0.8600   -2.3230    2.6520 N.2       1    LIG21    0.0000
     15 C10         1.0120   -3.2430    3.6380 C.2       1    LIG21    0.0000
     16 C11         2.1690   -4.0550    3.6230 C.2       1    LIG21    0.0000
     17 C12         3.0950   -3.8480    2.5900 C.2       1    LIG21    0.0000
     18 N4          2.8690   -2.9090    1.6410 N.2       1    LIG21    0.0000
     19 C13        -0.0090   -3.3280    4.6190 C.2       1    LIG21    0.0000
     20 F1          2.4220   -4.9540    4.5360 F         1    LIG21    0.0000
     21 C14        -0.5480   -4.5850    4.9760 C.2       1    LIG21    0.0000
     22 C15        -1.5870   -4.6830    5.9160 C.2       1    LIG21    0.0000
     23 C16        -2.1020   -3.5230    6.5130 C.2       1    LIG21    0.0000
     24 C17        -1.5730   -2.2680    6.1730 C.2       1    LIG21    0.0000
     25 C18        -0.5280   -2.1580    5.2300 C.2       1    LIG21    0.0000
     26 F2         -3.0700   -3.6110    7.3820 F         1    LIG21    0.0000
     27 O2          0.0140   -0.9430    4.8980 O.3       1    LIG21    0.0000
     28 C19        -0.1810    0.2420    5.6750 C.3       1    LIG21    0.0000
     29 H1         -2.4910    1.9630    0.1380 H         1    LIG21    0.0000
     30 H2         -0.9820   -1.8970    0.8200 H         1    LIG21    0.0000
     31 H3          1.6510    1.3090    0.1470 H         1    LIG21    0.0000
     32 H4         -0.2370    2.8000   -0.1040 H         1    LIG21    0.0000
     33 H5         -4.0300    0.2250    0.5010 H         1    LIG21    0.0000
     34 H6         -3.4710   -1.3550   -0.0630 H         1    LIG21    0.0000
     35 H7         -3.2700   -0.3190    4.5090 H         1    LIG21    0.0000
     36 H8         -1.9820    0.1910    3.3930 H         1    LIG21    0.0000
     37 H9         -3.5900    0.9480    3.3000 H         1    LIG21    0.0000
     38 H10        -5.5990   -2.0690    2.8860 H         1    LIG21    0.0000
     39 H11         2.3030   -1.1180    0.0320 H         1    LIG21    0.0000
     40 H12         3.9490   -4.4060    2.5490 H         1    LIG21    0.0000
     41 H13        -0.2010   -5.4400    4.5390 H         1    LIG21    0.0000
     42 H14        -1.9690   -5.5980    6.1570 H         1    LIG21    0.0000
     43 H15        -1.9530   -1.4310    6.6140 H         1    LIG21    0.0000
     44 H16         0.4000    1.0500    5.2320 H         1    LIG21    0.0000
     45 H17        -1.2330    0.5290    5.6810 H         1    LIG21    0.0000
     46 H18         0.1610    0.0810    6.6990 H         1    LIG21    0.0000
@<TRIPOS>BOND
     1    1    2 2
     2    1    6 1
     3    1   29 1
     4    2    3 1
     5    2    7 1
     6    3    4 2
     7    3   30 1
     8    4    5 1
     9    4   12 1
    10    5    6 2
    11    5   31 1
    12    6   32 1
    13    7    8 1
    14    7   33 1
    15    7   34 1
    16    8    9 1
    17    8   10 2
    18    8   11 2
    19    9   35 1
    20    9   36 1
    21    9   37 1
    22   10   38 1
    23   12   13 1
    24   12   39 1
    25   13   14 2
    26   13   18 1
    27   14   15 1
    28   15   16 2
    29   15   19 1
    30   16   17 1
    31   16   20 1
    32   17   18 2
    33   17   40 1
    34   19   21 2
    35   19   25 1
    36   21   22 1
    37   21   41 1
    38   22   23 2
    39   22   42 1
    40   23   24 1
    41   23   26 1
    42   24   25 2
    43   24   43 1
    44   25   27 1
    45   27   28 1
    46   28   44 1
    47   28   45 1
    48   28   46 1
@<TRIPOS>SUBSTRUCTURE
     1    LIG21    1   GROUP 1   LIG 1
@<TRIPOS>MOLECULE
50384172
   53    56    1     0     0
SMALL
USER_CHARGES


@<TRIPOS>ATOM
      1 C1         -3.3440   -3.9760    0.9230 C.2       1    LIG22    0.0000
      2 C2         -3.4580   -5.3770    0.9870 C.2       1    LIG22    0.0000
      3 C3         -2.2600   -6.1450    0.9170 C.2       1    LIG22    0.0000
      4 N1         -1.0980   -5.4490    0.7990 N.2       1    LIG22    0.0000
      5 C4         -1.0060   -4.1010    0.7360 C.2       1    LIG22    0.0000
      6 N2         -2.1400   -3.3770    0.8010 N.2       1    LIG22    0.0000
      7 C5         -2.1240   -7.5730    0.9470 C.2       1    LIG22    0.0000
      8 N3         -2.5990   -9.7870    0.9490 N.pl3     1    LIG22    0.0000
      9 C6         -3.1280   -8.5550    0.9220 C.2       1    LIG22    0.0000
     10 C7         -1.2710   -9.6770    0.9920 C.2       1    LIG22    0.0000
     11 C8         -0.9330   -8.3220    0.9920 C.2       1    LIG22    0.0000
     12 C9          0.4280   -7.9540    1.0470 C.2       1    LIG22    0.0000
     13 C10         1.4160   -8.9570    1.0880 C.2       1    LIG22    0.0000
     14 C11         1.0530  -10.3190    1.0800 C.2       1    LIG22    0.0000
     15 C12        -0.3030  -10.6920    1.0340 C.2       1    LIG22    0.0000
     16 Cl1        -5.0380   -5.9620    1.1850 Cl        1    LIG22    0.0000
     17 N4          0.1740   -3.4630    0.6140 N.pl3     1    LIG22    0.0000
     18 C13         1.4250   -4.1300    0.5230 C.3       1    LIG22    0.0000
     19 C14         1.5790   -4.8590   -0.8260 C.3       1    LIG22    0.0000
     20 C15         2.9750   -5.4920   -0.9280 C.3       1    LIG22    0.0000
     21 N5          3.9750   -4.4840   -0.7370 N.am      1    LIG22    0.0000
     22 C16         3.9180   -3.7880    0.5130 C.3       1    LIG22    0.0000
     23 C17         2.5540   -3.0950    0.6550 C.3       1    LIG22    0.0000
     24 C18         4.9190   -4.1760   -1.6810 C.2       1    LIG22    0.0000
     25 O1          5.7430   -3.2590   -1.4620 O.2       1    LIG22    0.0000
     26 C19         5.0240   -4.8690   -2.9730 C.3       1    LIG22    0.0000
     27 N6          5.3930   -6.2290   -2.7830 N.am      1    LIG22    0.0000
     28 C20         5.5420   -7.0920   -3.8080 C.2       1    LIG22    0.0000
     29 C21         5.9250   -8.4750   -3.5300 C.3       1    LIG22    0.0000
     30 O2          5.3530   -6.7240   -4.9890 O.2       1    LIG22    0.0000
     31 H1         -4.1750   -3.3820    0.9730 H         1    LIG22    0.0000
     32 H2         -3.0990  -10.6180    0.9340 H         1    LIG22    0.0000
     33 H3         -4.1290   -8.3970    0.8650 H         1    LIG22    0.0000
     34 H4          0.7140   -6.9780    1.0640 H         1    LIG22    0.0000
     35 H5          2.4020   -8.6960    1.1260 H         1    LIG22    0.0000
     36 H6          1.7760  -11.0380    1.1120 H         1    LIG22    0.0000
     37 H7         -0.5750  -11.6760    1.0320 H         1    LIG22    0.0000
     38 H8          0.1650   -2.4940    0.6080 H         1    LIG22    0.0000
     39 H9          1.5200   -4.8460    1.3410 H         1    LIG22    0.0000
     40 H10         1.4470   -4.1480   -1.6430 H         1    LIG22    0.0000
     41 H11         0.8280   -5.6430   -0.9180 H         1    LIG22    0.0000
     42 H12         3.0790   -6.2480   -0.1490 H         1    LIG22    0.0000
     43 H13         3.0480   -5.9900   -1.8940 H         1    LIG22    0.0000
     44 H14         4.0380   -4.5060    1.3250 H         1    LIG22    0.0000
     45 H15         4.6980   -3.0310    0.6100 H         1    LIG22    0.0000
     46 H16         2.4530   -2.3370   -0.1240 H         1    LIG22    0.0000
     47 H17         2.4960   -2.6130    1.6320 H         1    LIG22    0.0000
     48 H18         4.0670   -4.8040   -3.4940 H         1    LIG22    0.0000
     49 H19         5.7850   -4.3790   -3.5840 H         1    LIG22    0.0000
     50 H20         5.5440   -6.5500   -1.8810 H         1    LIG22    0.0000
     51 H21         5.9990   -9.0360   -4.4630 H         1    LIG22    0.0000
     52 H22         6.8910   -8.4900   -3.0250 H         1    LIG22    0.0000
     53 H23         5.1740   -8.9390   -2.8920 H         1    LIG22    0.0000
@<TRIPOS>BOND
     1    1    2 1
     2    1    6 2
     3    1   31 1
     4    2    3 2
     5    2   16 1
     6    3    4 1
     7    3    7 1
     8    4    5 2
     9    5    6 1
    10    5   17 1
    11    7    9 2
    12    7   11 1
    13    8    9 1
    14    8   10 1
    15    8   32 1
    16    9   33 1
    17   10   11 1
    18   10   15 2
    19   11   12 2
    20   12   13 1
    21   12   34 1
    22   13   14 2
    23   13   35 1
    24   14   15 1
    25   14   36 1
    26   15   37 1
    27   17   18 1
    28   17   38 1
    29   18   19 1
    30   18   23 1
    31   18   39 1
    32   19   20 1
    33   19   40 1
    34   19   41 1
    35   20   21 1
    36   20   42 1
    37   20   43 1
    38   21   22 1
    39   21   24 1
    40   22   23 1
    41   22   44 1
    42   22   45 1
    43   23   46 1
    44   23   47 1
    45   24   25 2
    46   24   26 1
    47   26   27 1
    48   26   48 1
    49   26   49 1
    50   27   28 1
    51   27   50 1
    52   28   29 1
    53   28   30 2
    54   29   51 1
    55   29   52 1
    56   29   53 1
@<TRIPOS>SUBSTRUCTURE
     1    LIG22    1   GROUP 1   LIG 1
@<TRIPOS>MOLECULE
1028285
   54    58    1     0     0
SMALL
USER_CHARGES


@<TRIPOS>ATOM
      1 C1         -4.8500   12.1950   -0.9130 C.3       1    LIG23    0.0000
      2 C2         -4.3750   11.4340    0.3400 C.3       1    LIG23    0.0000
      3 N1         -3.3180   10.4750   -0.0150 N.3       1    LIG23    0.0000
      4 C3         -3.8360    9.4380   -0.9270 C.3       1    LIG23    0.0000
      5 C4         -4.5790    9.9910   -2.0740 C.2       1    LIG23    0.0000
      6 C5         -5.0580   11.3130   -2.0720 C.2       1    LIG23    0.0000
      7 C6         -4.8540    9.2150   -3.2090 C.2       1    LIG23    0.0000
      8 N2         -5.5270    9.7490   -4.2550 N.2       1    LIG23    0.0000
      9 C7         -5.9640   11.0330   -4.2480 C.2       1    LIG23    0.0000
     10 N3         -5.7200   11.7920   -3.1530 N.2       1    LIG23    0.0000
     11 N4         -6.6360   11.6100   -5.2690 N.pl3     1    LIG23    0.0000
     12 C8         -6.9790   11.0280   -6.4390 C.2       1    LIG23    0.0000
     13 N5         -6.6890    9.7460   -6.7650 N.2       1    LIG23    0.0000
     14 C9         -7.0240    9.1390   -7.9380 C.2       1    LIG23    0.0000
     15 C10        -7.7320    9.9360   -8.8770 C.2       1    LIG23    0.0000
     16 C11        -8.0300   11.2640   -8.5350 C.2       1    LIG23    0.0000
     17 N6         -7.6520   11.7720   -7.3410 N.2       1    LIG23    0.0000
     18 F1         -8.1350    9.5370  -10.0510 F         1    LIG23    0.0000
     19 C12        -6.6260    7.7640   -8.0960 C.2       1    LIG23    0.0000
     20 C13        -6.9020    6.9820   -9.2530 C.2       1    LIG23    0.0000
     21 C14        -6.4920    5.6390   -9.3660 C.2       1    LIG23    0.0000
     22 C15        -5.7910    5.0640   -8.2980 C.2       1    LIG23    0.0000
     23 C16        -5.5010    5.7870   -7.1510 C.2       1    LIG23    0.0000
     24 C17        -5.9120    7.1280   -7.0430 C.2       1    LIG23    0.0000
     25 N7         -5.3020    3.8270   -8.1630 N.2       1    LIG23    0.0000
     26 C18        -4.7180    3.7830   -6.9520 C.2       1    LIG23    0.0000
     27 N8         -4.8260    4.9750   -6.3110 N.pl3     1    LIG23    0.0000
     28 C19        -4.3230    5.2990   -5.0040 C.3       1    LIG23    0.0000
     29 C20        -3.2620    6.4130   -5.0560 C.3       1    LIG23    0.0000
     30 C21        -5.4560    5.6520   -4.0240 C.3       1    LIG23    0.0000
     31 C22        -4.0760    2.5480   -6.4860 C.3       1    LIG23    0.0000
     32 F2         -6.7610    4.9500  -10.4400 F         1    LIG23    0.0000
     33 H1         -5.7880   12.6970   -0.6740 H         1    LIG23    0.0000
     34 H2         -4.1090   12.9490   -1.1800 H         1    LIG23    0.0000
     35 H3         -5.2160   10.9030    0.7900 H         1    LIG23    0.0000
     36 H4         -3.9840   12.1490    1.0640 H         1    LIG23    0.0000
     37 H5         -2.6070   10.9990   -0.5290 H         1    LIG23    0.0000
     38 H6         -2.9810    8.8670   -1.2940 H         1    LIG23    0.0000
     39 H7         -4.4910    8.7640   -0.3730 H         1    LIG23    0.0000
     40 H8         -4.5380    8.2470   -3.2530 H         1    LIG23    0.0000
     41 H9         -6.8980   12.5350   -5.1490 H         1    LIG23    0.0000
     42 H10        -8.5380   11.8610   -9.1890 H         1    LIG23    0.0000
     43 H11        -7.4090    7.3720  -10.0420 H         1    LIG23    0.0000
     44 H12        -5.6890    7.6390   -6.1910 H         1    LIG23    0.0000
     45 H13        -3.8210    4.4370   -4.5710 H         1    LIG23    0.0000
     46 H14        -2.8270    6.5460   -4.0650 H         1    LIG23    0.0000
     47 H15        -2.4730    6.1280   -5.7530 H         1    LIG23    0.0000
     48 H16        -3.6980    7.3560   -5.3780 H         1    LIG23    0.0000
     49 H17        -5.0430    5.7820   -3.0230 H         1    LIG23    0.0000
     50 H18        -5.9590    6.5710   -4.3190 H         1    LIG23    0.0000
     51 H19        -6.1830    4.8390   -4.0030 H         1    LIG23    0.0000
     52 H20        -3.6470    2.6530   -5.4940 H         1    LIG23    0.0000
     53 H21        -4.8190    1.7500   -6.4640 H         1    LIG23    0.0000
     54 H22        -3.2840    2.2750   -7.1840 H         1    LIG23    0.0000
@<TRIPOS>BOND
     1    1    2 1
     2    1    6 1
     3    1   33 1
     4    1   34 1
     5    2    3 1
     6    2   35 1
     7    2   36 1
     8    3    4 1
     9    3   37 1
    10    4    5 1
    11    4   38 1
    12    4   39 1
    13    5    6 2
    14    5    7 1
    15    6   10 1
    16    7    8 2
    17    7   40 1
    18    8    9 1
    19    9   10 2
    20    9   11 1
    21   11   12 1
    22   11   41 1
    23   12   13 2
    24   12   17 1
    25   13   14 1
    26   14   15 2
    27   14   19 1
    28   15   16 1
    29   15   18 1
    30   16   17 2
    31   16   42 1
    32   19   20 2
    33   19   24 1
    34   20   21 1
    35   20   43 1
    36   21   22 2
    37   21   32 1
    38   22   23 1
    39   22   25 1
    40   23   24 2
    41   23   27 1
    42   24   44 1
    43   25   26 2
    44   26   27 1
    45   26   31 1
    46   27   28 1
    47   28   29 1
    48   28   30 1
    49   28   45 1
    50   29   46 1
    51   29   47 1
    52   29   48 1
    53   30   49 1
    54   30   50 1
    55   30   51 1
    56   31   52 1
    57   31   53 1
    58   31   54 1
@<TRIPOS>SUBSTRUCTURE
     1    LIG23    1   GROUP 1   LIG 1
@<TRIPOS>MOLECULE
50368392
   47    50    1     0     0
SMALL
USER_CHARGES


@<TRIPOS>ATOM
      1 C1         -4.0200  -16.3140    0.6030 C.2       1    LIG24    0.0000
      2 C2         -3.6270  -17.4440   -0.1390 C.2       1    LIG24    0.0000
      3 C3         -2.5370  -18.2340    0.2720 C.2       1    LIG24    0.0000
      4 C4         -3.3080  -15.9700    1.7690 C.2       1    LIG24    0.0000
      5 C5         -2.2080  -16.7460    2.1920 C.2       1    LIG24    0.0000
      6 C6         -1.8270  -17.8740    1.4360 C.2       1    LIG24    0.0000
      7 O1         -0.7440  -18.6050    1.8410 O.3       1    LIG24    0.0000
      8 C7         -0.0460  -18.2840    2.9450 C.2       1    LIG24    0.0000
      9 C8         -0.4050  -17.2210    3.6910 C.2       1    LIG24    0.0000
     10 C9         -1.4650  -16.4560    3.3260 C.2       1    LIG24    0.0000
     11 O2         -1.7560  -15.4960    4.0280 O.2       1    LIG24    0.0000
     12 C10         1.0210  -19.1080    3.2560 C.2       1    LIG24    0.0000
     13 C11         2.3010  -18.5820    3.5210 C.2       1    LIG24    0.0000
     14 C12         3.3730  -19.4380    3.8140 C.2       1    LIG24    0.0000
     15 C13         3.1810  -20.8290    3.8360 C.2       1    LIG24    0.0000
     16 C14         1.9100  -21.3880    3.5630 C.2       1    LIG24    0.0000
     17 C15         0.8420  -20.5070    3.2740 C.2       1    LIG24    0.0000
     18 O3          4.2480  -21.6110    4.1220 O.3       1    LIG24    0.0000
     19 O4          0.2530  -16.9010    4.8020 O.3       1    LIG24    0.0000
     20 N1         -2.1880  -19.3110   -0.4700 N.pl3     1    LIG24    0.0000
     21 C16        -5.1660  -15.5110    0.1500 C.3       1    LIG24    0.0000
     22 S1         -1.8310  -19.1420   -2.1050 S.o2      1    LIG24    0.0000
     23 C17        -1.0510  -20.7580   -2.1570 C.3       1    LIG24    0.0000
     24 C18        -1.8370  -21.5730   -1.1300 C.3       1    LIG24    0.0000
     25 C19        -2.0980  -20.6310    0.0540 C.3       1    LIG24    0.0000
     26 O5         -0.7140  -18.0240   -2.2830 O.2       1    LIG24    0.0000
     27 O6         -3.2090  -19.2760   -2.8860 O.2       1    LIG24    0.0000
     28 C20         1.7240  -22.8640    3.5800 C.3       1    LIG24    0.0000
     29 F1          0.4430  -23.2770    3.2930 F         1    LIG24    0.0000
     30 F2          2.5480  -23.4550    2.6530 F         1    LIG24    0.0000
     31 F3          2.0360  -23.3660    4.8200 F         1    LIG24    0.0000
     32 H1         -4.1450  -17.6950   -0.9820 H         1    LIG24    0.0000
     33 H2         -3.5900  -15.1510    2.3090 H         1    LIG24    0.0000
     34 H3          2.4580  -17.5730    3.5010 H         1    LIG24    0.0000
     35 H4          4.2960  -19.0480    4.0080 H         1    LIG24    0.0000
     36 H5         -0.0830  -20.8880    3.0710 H         1    LIG24    0.0000
     37 H6          4.0730  -22.5760    4.1270 H         1    LIG24    0.0000
     38 H7         -0.1100  -16.1120    5.2580 H         1    LIG24    0.0000
     39 H8         -5.3530  -14.6730    0.8230 H         1    LIG24    0.0000
     40 H9         -4.9660  -15.1200   -0.8490 H         1    LIG24    0.0000
     41 H10        -6.0590  -16.1370    0.1150 H         1    LIG24    0.0000
     42 H11        -1.1200  -21.1960   -3.1530 H         1    LIG24    0.0000
     43 H12        -0.0090  -20.6720   -1.8490 H         1    LIG24    0.0000
     44 H13        -2.7890  -21.8750   -1.5680 H         1    LIG24    0.0000
     45 H14        -1.2760  -22.4540   -0.8150 H         1    LIG24    0.0000
     46 H15        -3.0270  -20.9170    0.5490 H         1    LIG24    0.0000
     47 H16        -1.2700  -20.7040    0.7580 H         1    LIG24    0.0000
@<TRIPOS>BOND
     1    1    2 2
     2    1    4 1
     3    1   21 1
     4    2    3 1
     5    2   32 1
     6    3    6 2
     7    3   20 1
     8    4    5 2
     9    4   33 1
    10    5    6 1
    11    5   10 1
    12    6    7 1
    13    7    8 1
    14    8    9 2
    15    8   12 1
    16    9   10 1
    17    9   19 1
    18   10   11 2
    19   12   13 2
    20   12   17 1
    21   13   14 1
    22   13   34 1
    23   14   15 2
    24   14   35 1
    25   15   16 1
    26   15   18 1
    27   16   17 2
    28   16   28 1
    29   17   36 1
    30   18   37 1
    31   19   38 1
    32   20   22 1
    33   20   25 1
    34   21   39 1
    35   21   40 1
    36   21   41 1
    37   22   23 1
    38   22   26 2
    39   22   27 2
    40   23   24 1
    41   23   42 1
    42   23   43 1
    43   24   25 1
    44   24   44 1
    45   24   45 1
    46   25   46 1
    47   25   47 1
    48   28   29 1
    49   28   30 1
    50   28   31 1
@<TRIPOS>SUBSTRUCTURE
     1    LIG24    1   GROUP 1   LIG 1
@<TRIPOS>MOLECULE
50345210
   66    70    1     0     0
SMALL
USER_CHARGES


@<TRIPOS>ATOM
      1 N1         -2.2360   -8.1030    1.2710 N.pl3     1    LIG25    0.0000
      2 C1         -0.9420   -8.3440    0.9580 C.2       1    LIG25    0.0000
      3 C2         -2.8780   -6.9260    1.1110 C.2       1    LIG25    0.0000
      4 C3         -0.4130   -9.6250    1.1930 C.2       1    LIG25    0.0000
      5 N2          0.8890   -9.8680    0.8980 N.2       1    LIG25    0.0000
      6 C4          1.7140   -8.9250    0.3760 C.2       1    LIG25    0.0000
      7 C5          1.1880   -7.6450    0.1310 C.2       1    LIG25    0.0000
      8 N3         -0.1120   -7.4050    0.4320 N.2       1    LIG25    0.0000
      9 S1         -2.1750   -5.4870    0.4460 S.3       1    LIG25    0.0000
     10 C6         -3.7000   -4.7090    0.7020 C.2       1    LIG25    0.0000
     11 C7         -4.6370   -5.5720    1.2620 C.2       1    LIG25    0.0000
     12 N4         -4.1610   -6.8040    1.4820 N.2       1    LIG25    0.0000
     13 C8         -3.9400   -3.3620    0.3810 C.2       1    LIG25    0.0000
     14 N5         -5.1560   -2.8130    0.6270 N.2       1    LIG25    0.0000
     15 C9         -5.4420   -1.5180    0.3500 C.2       1    LIG25    0.0000
     16 N6         -4.4800   -0.7410   -0.1990 N.2       1    LIG25    0.0000
     17 C10        -3.2440   -1.2200   -0.4750 C.2       1    LIG25    0.0000
     18 C11        -2.9360   -2.5600   -0.1880 C.2       1    LIG25    0.0000
     19 O1         -6.6630   -0.9780    0.6070 O.3       1    LIG25    0.0000
     20 C12        -7.6670   -1.7380    1.2860 C.3       1    LIG25    0.0000
     21 C13        -7.3170   -1.9140    2.7770 C.3       1    LIG25    0.0000
     22 C14        -8.4380   -2.6690    3.5080 C.3       1    LIG25    0.0000
     23 C15        -9.7720   -1.9210    3.3650 C.3       1    LIG25    0.0000
     24 C16       -10.1240   -1.7360    1.8810 C.3       1    LIG25    0.0000
     25 C17        -8.9990   -0.9820    1.1550 C.3       1    LIG25    0.0000
     26 C18        -2.2560   -0.3130   -1.0700 C.3       1    LIG25    0.0000
     27 C19         3.1210   -9.2430    0.0940 C.3       1    LIG25    0.0000
     28 N7          4.0470   -8.3860    0.8690 N.3       1    LIG25    0.0000
     29 C20         5.4200   -8.5400    0.3480 C.3       1    LIG25    0.0000
     30 C21         6.3860   -7.6310    1.1220 C.3       1    LIG25    0.0000
     31 N8          6.3640   -7.9800    2.5550 N.3       1    LIG25    0.0000
     32 C22         4.9960   -7.8250    3.0810 C.3       1    LIG25    0.0000
     33 C23         4.0320   -8.7350    2.3070 C.3       1    LIG25    0.0000
     34 C24         7.2900   -7.1090    3.2990 C.3       1    LIG25    0.0000
     35 H1         -2.7480   -8.8330    1.6510 H         1    LIG25    0.0000
     36 H2         -0.9950  -10.3660    1.5850 H         1    LIG25    0.0000
     37 H3          1.7740   -6.9060   -0.2590 H         1    LIG25    0.0000
     38 H4         -5.5950   -5.3000    1.4880 H         1    LIG25    0.0000
     39 H5         -2.0060   -2.9320   -0.3900 H         1    LIG25    0.0000
     40 H6         -7.7780   -2.7190    0.8180 H         1    LIG25    0.0000
     41 H7         -7.1800   -0.9340    3.2350 H         1    LIG25    0.0000
     42 H8         -6.3920   -2.4810    2.8750 H         1    LIG25    0.0000
     43 H9         -8.5350   -3.6700    3.0860 H         1    LIG25    0.0000
     44 H10        -8.1840   -2.7540    4.5650 H         1    LIG25    0.0000
     45 H11        -9.6930   -0.9440    3.8430 H         1    LIG25    0.0000
     46 H12       -10.5600   -2.4940    3.8540 H         1    LIG25    0.0000
     47 H13       -11.0500   -1.1670    1.7990 H         1    LIG25    0.0000
     48 H14       -10.2650   -2.7130    1.4160 H         1    LIG25    0.0000
     49 H15        -8.8950    0.0150    1.5850 H         1    LIG25    0.0000
     50 H16        -9.2550   -0.8870    0.1000 H         1    LIG25    0.0000
     51 H17        -1.3080   -0.8220   -1.2500 H         1    LIG25    0.0000
     52 H18        -2.6410    0.0650   -2.0170 H         1    LIG25    0.0000
     53 H19        -2.0860    0.5250   -0.3940 H         1    LIG25    0.0000
     54 H20         3.3140  -10.2930    0.3230 H         1    LIG25    0.0000
     55 H21         3.2910   -9.0900   -0.9730 H         1    LIG25    0.0000
     56 H22         5.4470   -8.2580   -0.7050 H         1    LIG25    0.0000
     57 H23         5.7470   -9.5770    0.4460 H         1    LIG25    0.0000
     58 H24         7.3930   -7.7720    0.7270 H         1    LIG25    0.0000
     59 H25         6.0900   -6.5900    0.9800 H         1    LIG25    0.0000
     60 H26         4.6660   -6.7890    2.9840 H         1    LIG25    0.0000
     61 H27         4.9740   -8.1080    4.1340 H         1    LIG25    0.0000
     62 H28         4.3320   -9.7760    2.4450 H         1    LIG25    0.0000
     63 H29         3.0300   -8.5990    2.7150 H         1    LIG25    0.0000
     64 H30         7.2770   -7.3770    4.3560 H         1    LIG25    0.0000
     65 H31         8.3030   -7.2400    2.9180 H         1    LIG25    0.0000
     66 H32         6.9990   -6.0620    3.1920 H         1    LIG25    0.0000
@<TRIPOS>BOND
     1    1    2 1
     2    1    3 1
     3    1   35 1
     4    2    4 1
     5    2    8 2
     6    3    9 1
     7    3   12 2
     8    4    5 2
     9    4   36 1
    10    5    6 1
    11    6    7 2
    12    6   27 1
    13    7    8 1
    14    7   37 1
    15    9   10 1
    16   10   11 2
    17   10   13 1
    18   11   12 1
    19   11   38 1
    20   13   14 1
    21   13   18 2
    22   14   15 2
    23   15   16 1
    24   15   19 1
    25   16   17 2
    26   17   18 1
    27   17   26 1
    28   18   39 1
    29   19   20 1
    30   20   21 1
    31   20   25 1
    32   20   40 1
    33   21   22 1
    34   21   41 1
    35   21   42 1
    36   22   23 1
    37   22   43 1
    38   22   44 1
    39   23   24 1
    40   23   45 1
    41   23   46 1
    42   24   25 1
    43   24   47 1
    44   24   48 1
    45   25   49 1
    46   25   50 1
    47   26   51 1
    48   26   52 1
    49   26   53 1
    50   27   28 1
    51   27   54 1
    52   27   55 1
    53   28   29 1
    54   28   33 1
    55   29   30 1
    56   29   56 1
    57   29   57 1
    58   30   31 1
    59   30   58 1
    60   30   59 1
    61   31   32 1
    62   31   34 1
    63   32   33 1
    64   32   60 1
    65   32   61 1
    66   33   62 1
    67   33   63 1
    68   34   64 1
    69   34   65 1
    70   34   66 1
@<TRIPOS>SUBSTRUCTURE
     1    LIG25    1   GROUP 1   LIG 1
@<TRIPOS>MOLECULE
50457818
   46    49    1     0     0
SMALL
USER_CHARGES


@<TRIPOS>ATOM
      1 C1         -0.5110    3.4060    0.6520 C.2       1    LIG26    0.0000
      2 C2         -2.0800    1.6070    0.4720 C.2       1    LIG26    0.0000
      3 N1         -1.0680    0.7140    0.3210 N.2       1    LIG26    0.0000
      4 N2         -1.7830    2.9280    0.6370 N.2       1    LIG26    0.0000
      5 C3          0.5250    2.4830    0.4960 C.2       1    LIG26    0.0000
      6 C4          0.2140    1.1440    0.3330 C.2       1    LIG26    0.0000
      7 C5          2.3490    1.3640    0.2870 C.2       1    LIG26    0.0000
      8 N3          1.8530    2.6010    0.4650 N.pl3     1    LIG26    0.0000
      9 N4          1.3570    0.4540    0.2040 N.2       1    LIG26    0.0000
     10 O1         -0.2310    4.7270    0.8070 O.3       1    LIG26    0.0000
     11 N5         -3.3480    1.1290    0.4640 N.pl3     1    LIG26    0.0000
     12 C6         -1.3070    5.6580    0.9540 C.3       1    LIG26    0.0000
     13 C7         -0.7560    7.0860    1.0950 C.3       1    LIG26    0.0000
     14 C8          1.4710    9.0280    1.2290 C.3       1    LIG26    0.0000
     15 C9          0.6830    8.6280    2.4860 C.3       1    LIG26    0.0000
     16 C10         0.1370    7.1990    2.3440 C.3       1    LIG26    0.0000
     17 C11         0.0380    7.4860   -0.1620 C.3       1    LIG26    0.0000
     18 C12         0.5840    8.9150   -0.0200 C.3       1    LIG26    0.0000
     19 C13        -4.4900    1.8480    0.6200 C.2       1    LIG26    0.0000
     20 C14        -6.7530    1.9330    1.5410 C.2       1    LIG26    0.0000
     21 C15        -6.9410    3.2090    0.9840 C.2       1    LIG26    0.0000
     22 C16        -5.9110    3.8030    0.2350 C.2       1    LIG26    0.0000
     23 C17        -4.6950    3.1240    0.0480 C.2       1    LIG26    0.0000
     24 C18        -5.5350    1.2560    1.3560 C.2       1    LIG26    0.0000
     25 O2         -8.1130    3.8550    1.1670 O.3       1    LIG26    0.0000
     26 H1          3.3440    1.1430    0.2240 H         1    LIG26    0.0000
     27 H2          2.3610    3.4220    0.5540 H         1    LIG26    0.0000
     28 H3         -3.4430    0.1670    0.3900 H         1    LIG26    0.0000
     29 H4         -1.9590    5.6150    0.0800 H         1    LIG26    0.0000
     30 H5         -1.8910    5.4140    1.8440 H         1    LIG26    0.0000
     31 H6         -1.6010    7.7680    1.2070 H         1    LIG26    0.0000
     32 H7          2.3360    8.3720    1.1200 H         1    LIG26    0.0000
     33 H8          1.8170   10.0560    1.3330 H         1    LIG26    0.0000
     34 H9         -0.1470    9.3210    2.6290 H         1    LIG26    0.0000
     35 H10         1.3410    8.6770    3.3540 H         1    LIG26    0.0000
     36 H11         0.9720    6.5020    2.2630 H         1    LIG26    0.0000
     37 H12        -0.4460    6.9500    3.2320 H         1    LIG26    0.0000
     38 H13         0.8710    6.7960   -0.3050 H         1    LIG26    0.0000
     39 H14        -0.6150    7.4380   -1.0340 H         1    LIG26    0.0000
     40 H15        -0.2480    9.6150    0.0610 H         1    LIG26    0.0000
     41 H16         1.1730    9.1650   -0.9030 H         1    LIG26    0.0000
     42 H17        -7.5010    1.4960    2.0810 H         1    LIG26    0.0000
     43 H18        -6.0460    4.7270   -0.1780 H         1    LIG26    0.0000
     44 H19        -3.9630    3.5620   -0.5110 H         1    LIG26    0.0000
     45 H20        -5.4100    0.3290    1.7650 H         1    LIG26    0.0000
     46 H21        -8.1630    4.7380    0.7460 H         1    LIG26    0.0000
@<TRIPOS>BOND
     1    1    4 1
     2    1    5 2
     3    1   10 1
     4    2    3 1
     5    2    4 2
     6    2   11 1
     7    3    6 2
     8    5    6 1
     9    5    8 1
    10    6    9 1
    11    7    8 1
    12    7    9 2
    13    7   26 1
    14    8   27 1
    15   10   12 1
    16   11   19 1
    17   11   28 1
    18   12   13 1
    19   12   29 1
    20   12   30 1
    21   13   16 1
    22   13   17 1
    23   13   31 1
    24   14   15 1
    25   14   18 1
    26   14   32 1
    27   14   33 1
    28   15   16 1
    29   15   34 1
    30   15   35 1
    31   16   36 1
    32   16   37 1
    33   17   18 1
    34   17   38 1
    35   17   39 1
    36   18   40 1
    37   18   41 1
    38   19   23 2
    39   19   24 1
    40   20   21 1
    41   20   24 2
    42   20   42 1
    43   21   22 2
    44   21   25 1
    45   22   23 1
    46   22   43 1
    47   23   44 1
    48   24   45 1
    49   25   46 1
@<TRIPOS>SUBSTRUCTURE
     1    LIG26    1   GROUP 1   LIG 1
@<TRIPOS>MOLECULE
7292
   48    49    1     0     0
SMALL
USER_CHARGES


@<TRIPOS>ATOM
      1 C1          2.2850    1.0250   -0.5610 C.2       1    LIG27    0.0000
      2 C2          2.7690    2.1310    0.1600 C.2       1    LIG27    0.0000
      3 C3          1.9240    2.7780    1.0770 C.2       1    LIG27    0.0000
      4 C4          0.6100    2.3230    1.2740 C.2       1    LIG27    0.0000
      5 C5          0.1120    1.2090    0.5570 C.2       1    LIG27    0.0000
      6 C6          0.9700    0.5720   -0.3620 C.2       1    LIG27    0.0000
      7 S1          4.3900    2.7020   -0.0930 S.3       1    LIG27    0.0000
      8 O1          4.7570    3.8320    0.9640 O.2       1    LIG27    0.0000
      9 N1          5.3730    1.4320   -0.4500 N.2       1    LIG27    0.0000
     10 N2         -1.1380    0.6710    0.6670 N.pl3     1    LIG27    0.0000
     11 C7         -2.1730    1.0330    1.4650 C.2       1    LIG27    0.0000
     12 N3         -3.3120    0.3060    1.3840 N.2       1    LIG27    0.0000
     13 C8         -4.3980    0.5770    2.1470 C.2       1    LIG27    0.0000
     14 C9         -4.3720    1.6390    3.0660 C.2       1    LIG27    0.0000
     15 C10        -3.1840    2.3900    3.1430 C.2       1    LIG27    0.0000
     16 N4         -2.1410    2.0620    2.3430 N.2       1    LIG27    0.0000
     17 Br1        -5.8710    2.0040    4.1130 Br        1    LIG27    0.0000
     18 N5         -3.0550    3.4370    3.9920 N.pl3     1    LIG27    0.0000
     19 C11        -1.8850    4.2430    4.0870 C.3       1    LIG27    0.0000
     20 C12        -2.2040    5.5120    4.9010 C.3       1    LIG27    0.0000
     21 C13        -0.7250    3.4750    4.7510 C.3       1    LIG27    0.0000
     22 O2         -2.7240    5.1630    6.1780 O.3       1    LIG27    0.0000
     23 C14         4.2950    3.5910   -1.6550 C.3       1    LIG27    0.0000
     24 C15        -3.2270    6.3950    4.1720 C.3       1    LIG27    0.0000
     25 O3          0.4710    4.2440    4.6460 O.3       1    LIG27    0.0000
     26 C16         1.6650    3.6350    5.1260 C.3       1    LIG27    0.0000
     27 H1          2.8910    0.5510   -1.2310 H         1    LIG27    0.0000
     28 H2          2.2650    3.5830    1.6030 H         1    LIG27    0.0000
     29 H3          0.0310    2.8220    1.9450 H         1    LIG27    0.0000
     30 H4          0.6380   -0.2330   -0.8950 H         1    LIG27    0.0000
     31 H5          6.2590    1.4350   -0.1520 H         1    LIG27    0.0000
     32 H6         -1.3160   -0.0920    0.0950 H         1    LIG27    0.0000
     33 H7         -5.2330   -0.0010    2.0470 H         1    LIG27    0.0000
     34 H8         -3.8120    3.6750    4.5510 H         1    LIG27    0.0000
     35 H9         -1.5730    4.5500    3.0860 H         1    LIG27    0.0000
     36 H10        -1.2870    6.0880    5.0390 H         1    LIG27    0.0000
     37 H11        -0.9570    3.2920    5.8010 H         1    LIG27    0.0000
     38 H12        -0.5740    2.5190    4.2510 H         1    LIG27    0.0000
     39 H13        -2.9200    5.9290    6.7580 H         1    LIG27    0.0000
     40 H14         5.2800    3.9850   -1.9060 H         1    LIG27    0.0000
     41 H15         3.9640    2.9140   -2.4430 H         1    LIG27    0.0000
     42 H16         3.5880    4.4150   -1.5620 H         1    LIG27    0.0000
     43 H17        -3.4020    7.3020    4.7500 H         1    LIG27    0.0000
     44 H18        -2.8420    6.6670    3.1890 H         1    LIG27    0.0000
     45 H19        -4.1680    5.8570    4.0550 H         1    LIG27    0.0000
     46 H20         2.4980    4.3240    4.9920 H         1    LIG27    0.0000
     47 H21         1.5610    3.3990    6.1860 H         1    LIG27    0.0000
     48 H22         1.8640    2.7200    4.5670 H         1    LIG27    0.0000
@<TRIPOS>BOND
     1    1    2 2
     2    1    6 1
     3    1   27 1
     4    2    3 1
     5    2    7 1
     6    3    4 2
     7    3   28 1
     8    4    5 1
     9    4   29 1
    10    5    6 2
    11    5   10 1
    12    6   30 1
    13    7    8 2
    14    7    9 2
    15    7   23 1
    16    9   31 1
    17   10   11 1
    18   10   32 1
    19   11   12 2
    20   11   16 1
    21   12   13 1
    22   13   14 2
    23   13   33 1
    24   14   15 1
    25   14   17 1
    26   15   16 2
    27   15   18 1
    28   19   18 1
    29   18   34 1
    30   19   20 1
    31   19   21 1
    32   19   35 1
    33   20   22 1
    34   20   24 1
    35   20   36 1
    36   21   25 1
    37   21   37 1
    38   21   38 1
    39   22   39 1
    40   23   40 1
    41   23   41 1
    42   23   42 1
    43   24   43 1
    44   24   44 1
    45   24   45 1
    46   25   26 1
    47   26   46 1
    48   26   47 1
    49   26   48 1
@<TRIPOS>SUBSTRUCTURE
     1    LIG27    1   GROUP 1   LIG 1
@<TRIPOS>MOLECULE
51368960
   39    40    1     0     0
SMALL
USER_CHARGES


@<TRIPOS>ATOM
      1 O1         12.0850   -4.4470    0.4330 O.2       1    LIG28    0.0000
      2 S1         13.1490   -3.2920    0.6810 S.o2      1    LIG28    0.0000
      3 O2         13.2020   -1.8950   -0.0760 O.2       1    LIG28    0.0000
      4 N1         20.1250   -3.9440    0.6570 N.2       1    LIG28    0.0000
      5 C1         19.8140   -5.2500    0.8280 C.2       1    LIG28    0.0000
      6 N2         20.8320   -6.1370    0.9270 N.2       1    LIG28    0.0000
      7 C2         22.1300   -5.7560    0.8600 C.2       1    LIG28    0.0000
      8 C3         22.4640   -4.4040    0.6850 C.2       1    LIG28    0.0000
      9 C4         21.3990   -3.4880    0.5840 C.2       1    LIG28    0.0000
     10 N3         21.6200   -2.1640    0.4110 N.pl3     1    LIG28    0.0000
     11 C5         20.5860   -1.1920    0.3010 C.3       1    LIG28    0.0000
     12 C6         19.8730   -0.9690    1.6490 C.3       1    LIG28    0.0000
     13 C7         21.2160    0.1240   -0.1780 C.3       1    LIG28    0.0000
     14 O3         18.8050   -0.0440    1.4920 O.3       1    LIG28    0.0000
     15 Br1        24.2560   -3.8920    0.5990 Br        1    LIG28    0.0000
     16 N4         18.5530   -5.7400    0.9160 N.pl3     1    LIG28    0.0000
     17 C8         17.3550   -5.0890    0.8460 C.2       1    LIG28    0.0000
     18 C9         17.1660   -3.7040    0.6330 C.2       1    LIG28    0.0000
     19 C10        15.8740   -3.1530    0.5820 C.2       1    LIG28    0.0000
     20 C11        14.7450   -3.9750    0.7390 C.2       1    LIG28    0.0000
     21 C12        14.9210   -5.3530    0.9530 C.2       1    LIG28    0.0000
     22 C13        16.2130   -5.9010    1.0040 C.2       1    LIG28    0.0000
     23 N5         12.8610   -2.8450    2.2710 N.pl3     1    LIG28    0.0000
     24 H1         22.8610   -6.4650    0.9400 H         1    LIG28    0.0000
     25 H2         22.5380   -1.8610    0.3300 H         1    LIG28    0.0000
     26 H3         19.8560   -1.5130   -0.4440 H         1    LIG28    0.0000
     27 H4         19.4640   -1.9090    2.0190 H         1    LIG28    0.0000
     28 H5         20.5820   -0.5800    2.3810 H         1    LIG28    0.0000
     29 H6         20.4400    0.8810   -0.2980 H         1    LIG28    0.0000
     30 H7         21.9480    0.4740    0.5510 H         1    LIG28    0.0000
     31 H8         21.7090   -0.0330   -1.1380 H         1    LIG28    0.0000
     32 H9         18.3050    0.1390    2.3160 H         1    LIG28    0.0000
     33 H10        18.5000   -6.6980    1.0520 H         1    LIG28    0.0000
     34 H11        17.9560   -3.0760    0.5070 H         1    LIG28    0.0000
     35 H12        15.7560   -2.1510    0.4280 H         1    LIG28    0.0000
     36 H13        14.1080   -5.9580    1.0710 H         1    LIG28    0.0000
     37 H14        16.3200   -6.9050    1.1590 H         1    LIG28    0.0000
     38 H15        13.1190   -1.9630    2.5770 H         1    LIG28    0.0000
     39 H16        12.4220   -3.4650    2.8730 H         1    LIG28    0.0000
@<TRIPOS>BOND
     1    1    2 2
     2    2    3 2
     3    2   20 1
     4    2   23 1
     5    4    5 2
     6    4    9 1
     7    5    6 1
     8    5   16 1
     9    6    7 2
    10    7    8 1
    11    7   24 1
    12    8    9 2
    13    8   15 1
    14    9   10 1
    15   10   11 1
    16   10   25 1
    17   11   12 1
    18   11   13 1
    19   11   26 1
    20   12   14 1
    21   12   27 1
    22   12   28 1
    23   13   29 1
    24   13   30 1
    25   13   31 1
    26   14   32 1
    27   16   17 1
    28   16   33 1
    29   17   18 2
    30   17   22 1
    31   18   19 1
    32   18   34 1
    33   19   20 2
    34   19   35 1
    35   20   21 1
    36   21   22 2
    37   21   36 1
    38   22   37 1
    39   23   38 1
    40   23   39 1
@<TRIPOS>SUBSTRUCTURE
     1    LIG28    1   GROUP 1   LIG 1
@<TRIPOS>MOLECULE
50406973
   43    46    1     0     0
SMALL
USER_CHARGES


@<TRIPOS>ATOM
      1 C1         -1.1630  -23.8370    0.6760 C.2       1    LIG29    0.0000
      2 C2         -2.4860  -23.8380    1.0910 C.2       1    LIG29    0.0000
      3 N1         -2.8680  -25.1110    1.2830 N.2       1    LIG29    0.0000
      4 N2         -1.8600  -25.8800    1.0090 N.pl3     1    LIG29    0.0000
      5 C3         -0.7850  -25.1670    0.6340 C.2       1    LIG29    0.0000
      6 N3          0.4390  -25.6210    0.2810 N.am      1    LIG29    0.0000
      7 C4          0.8070  -26.9250    0.2520 C.2       1    LIG29    0.0000
      8 C5          2.1770  -27.2750   -0.1490 C.3       1    LIG29    0.0000
      9 O1          0.0140  -27.8480    0.5500 O.2       1    LIG29    0.0000
     10 C6         -3.3250  -22.6560    1.2930 C.3       1    LIG29    0.0000
     11 C7         -3.6200  -21.7060    0.1270 C.3       1    LIG29    0.0000
     12 C8         -4.7400  -22.5680    0.7120 C.3       1    LIG29    0.0000
     13 C9          3.1870  -26.7210    0.7780 C.2       1    LIG29    0.0000
     14 C10         3.2660  -27.1800    2.1060 C.2       1    LIG29    0.0000
     15 C11         4.2220  -26.6520    2.9870 C.2       1    LIG29    0.0000
     16 C12         5.1320  -25.6530    2.5690 C.2       1    LIG29    0.0000
     17 C13         5.0480  -25.1960    1.2280 C.2       1    LIG29    0.0000
     18 C14         4.0890  -25.7290    0.3480 C.2       1    LIG29    0.0000
     19 C15         6.0900  -25.1470    3.4950 C.2       1    LIG29    0.0000
     20 C16         5.7080  -24.7930    4.8110 C.2       1    LIG29    0.0000
     21 C17         6.6500  -24.3020    5.7310 C.2       1    LIG29    0.0000
     22 C18         7.9940  -24.1570    5.3510 C.2       1    LIG29    0.0000
     23 C19         8.3930  -24.5050    4.0520 C.2       1    LIG29    0.0000
     24 C20         7.4500  -24.9970    3.1330 C.2       1    LIG29    0.0000
     25 F1          5.8230  -24.2530    0.7620 F         1    LIG29    0.0000
     26 H1         -0.5890  -23.0240    0.4520 H         1    LIG29    0.0000
     27 H2         -1.8750  -26.8490    1.0690 H         1    LIG29    0.0000
     28 H3          1.1090  -24.9640    0.0370 H         1    LIG29    0.0000
     29 H4          2.2820  -28.3610   -0.1760 H         1    LIG29    0.0000
     30 H5          2.3370  -26.8980   -1.1620 H         1    LIG29    0.0000
     31 H6         -3.1030  -22.2280    2.2710 H         1    LIG29    0.0000
     32 H7         -3.6230  -20.6290    0.2910 H         1    LIG29    0.0000
     33 H8         -3.2460  -21.9170   -0.8760 H         1    LIG29    0.0000
     34 H9         -5.5360  -22.1060    1.2960 H         1    LIG29    0.0000
     35 H10        -5.1520  -23.3920    0.1290 H         1    LIG29    0.0000
     36 H11         2.6240  -27.9030    2.4340 H         1    LIG29    0.0000
     37 H12         4.2550  -27.0140    3.9420 H         1    LIG29    0.0000
     38 H13         4.0390  -25.3860   -0.6130 H         1    LIG29    0.0000
     39 H14         4.7350  -24.8840    5.1090 H         1    LIG29    0.0000
     40 H15         6.3570  -24.0480    6.6750 H         1    LIG29    0.0000
     41 H16         8.6780  -23.8010    6.0180 H         1    LIG29    0.0000
     42 H17         9.3700  -24.4040    3.7740 H         1    LIG29    0.0000
     43 H18         7.7670  -25.2550    2.1970 H         1    LIG29    0.0000
@<TRIPOS>BOND
     1    1    2 1
     2    1    5 2
     3    1   26 1
     4    2    3 2
     5    2   10 1
     6    3    4 1
     7    4    5 1
     8    4   27 1
     9    5    6 1
    10    6    7 1
    11    6   28 1
    12    7    8 1
    13    7    9 2
    14    8   13 1
    15    8   29 1
    16    8   30 1
    17   10   11 1
    18   10   12 1
    19   10   31 1
    20   11   12 1
    21   11   32 1
    22   11   33 1
    23   12   34 1
    24   12   35 1
    25   13   14 2
    26   13   18 1
    27   14   15 1
    28   14   36 1
    29   15   16 2
    30   15   37 1
    31   16   17 1
    32   16   19 1
    33   17   18 2
    34   17   25 1
    35   18   38 1
    36   19   20 2
    37   19   24 1
    38   20   21 1
    39   20   39 1
    40   21   22 2
    41   21   40 1
    42   22   23 1
    43   22   41 1
    44   23   24 2
    45   23   42 1
    46   24   43 1
@<TRIPOS>SUBSTRUCTURE
     1    LIG29    1   GROUP 1   LIG 1
@<TRIPOS>MOLECULE
50907424
   34    38    1     0     0
SMALL
USER_CHARGES


@<TRIPOS>ATOM
      1 C1          8.2510  -18.8600    1.2210 C.2       1    LIG30    0.0000
      2 C2          7.7170  -21.0250    0.1730 C.2       1    LIG30    0.0000
      3 C3          7.5380  -19.6390    0.2830 C.2       1    LIG30    0.0000
      4 O1          6.6260  -19.2110   -0.6070 O.3       1    LIG30    0.0000
      5 C4          6.1870  -20.3750   -1.3200 C.3       1    LIG30    0.0000
      6 O2          6.9110  -21.4980   -0.7960 O.3       1    LIG30    0.0000
      7 C5          9.1580  -19.5440    2.0510 C.2       1    LIG30    0.0000
      8 C6         10.2470  -21.3590    2.8290 C.2       1    LIG30    0.0000
      9 N1         10.6710  -20.2830    3.5240 N.am      1    LIG30    0.0000
     10 C7         10.0300  -19.1700    3.0760 C.2       1    LIG30    0.0000
     11 C8          9.3130  -20.9150    1.9180 C.2       1    LIG30    0.0000
     12 C9          8.6280  -21.7310    1.0000 C.2       1    LIG30    0.0000
     13 C10        10.5610  -22.7240    2.8750 C.2       1    LIG30    0.0000
     14 C11         9.9080  -23.6110    1.9780 C.2       1    LIG30    0.0000
     15 C12         8.9400  -23.1200    1.0330 C.2       1    LIG30    0.0000
     16 C13         8.3230  -24.0420    0.1580 C.2       1    LIG30    0.0000
     17 C14         8.6430  -25.4060    0.2020 C.2       1    LIG30    0.0000
     18 C15         9.5850  -25.8800    1.1260 C.2       1    LIG30    0.0000
     19 C16        10.2130  -24.9920    2.0170 C.2       1    LIG30    0.0000
     20 O3         10.1990  -18.0110    3.5140 O.2       1    LIG30    0.0000
     21 O4         11.1220  -25.4920    2.9000 O.3       1    LIG30    0.0000
     22 C17        10.6330  -26.0280    4.1310 C.3       1    LIG30    0.0000
     23 O5          9.8870  -27.1970    1.1540 O.3       1    LIG30    0.0000
     24 H1          8.1140  -17.8510    1.2920 H         1    LIG30    0.0000
     25 H2          5.1160  -20.5210   -1.1710 H         1    LIG30    0.0000
     26 H3          6.3970  -20.2610   -2.3850 H         1    LIG30    0.0000
     27 H4         11.3320  -20.2970    4.2320 H         1    LIG30    0.0000
     28 H5         11.2510  -23.0610    3.5480 H         1    LIG30    0.0000
     29 H6          7.6330  -23.7330   -0.5270 H         1    LIG30    0.0000
     30 H7          8.1900  -26.0560   -0.4410 H         1    LIG30    0.0000
     31 H8         11.4780  -26.3870    4.7190 H         1    LIG30    0.0000
     32 H9         10.1110  -25.2560    4.6990 H         1    LIG30    0.0000
     33 H10         9.9540  -26.8610    3.9430 H         1    LIG30    0.0000
     34 H11        10.5730  -27.4320    1.8150 H         1    LIG30    0.0000
@<TRIPOS>BOND
     1    1    3 2
     2    1    7 1
     3    1   24 1
     4    2    3 1
     5    2    6 1
     6    2   12 2
     7    3    4 1
     8    4    5 1
     9    5    6 1
    10    5   25 1
    11    5   26 1
    12    7   10 1
    13    7   11 2
    14    8    9 1
    15    8   11 1
    16    8   13 2
    17    9   10 1
    18    9   27 1
    19   10   20 2
    20   11   12 1
    21   12   15 1
    22   13   14 1
    23   13   28 1
    24   14   15 1
    25   14   19 2
    26   15   16 2
    27   16   17 1
    28   16   29 1
    29   17   18 2
    30   17   30 1
    31   18   19 1
    32   18   23 1
    33   19   21 1
    34   21   22 1
    35   22   31 1
    36   22   32 1
    37   22   33 1
    38   23   34 1
@<TRIPOS>SUBSTRUCTURE
     1    LIG30    1   GROUP 1   LIG 1
@<TRIPOS>MOLECULE
51023113
   46    50    1     0     0
SMALL
USER_CHARGES


@<TRIPOS>ATOM
      1 C1         14.1380   -4.3510    1.0120 C.2       1    LIG31    0.0000
      2 C2         14.8150   -5.5640    1.2170 C.2       1    LIG31    0.0000
      3 C3         16.1860   -5.5630    1.5190 C.2       1    LIG31    0.0000
      4 C4         16.8890   -4.3490    1.6200 C.2       1    LIG31    0.0000
      5 C5         16.2000   -3.1350    1.4320 C.2       1    LIG31    0.0000
      6 C6         14.8230   -3.1200    1.1160 C.2       1    LIG31    0.0000
      7 C7         14.1460   -1.8970    0.8970 C.2       1    LIG31    0.0000
      8 C8         12.7860    0.5470    0.4660 C.2       1    LIG31    0.0000
      9 N1         12.3160   -0.3860    1.3440 N.am      1    LIG31    0.0000
     10 C9         12.9550   -1.5760    1.5740 C.2       1    LIG31    0.0000
     11 C10        13.9790    0.2740   -0.2350 C.2       1    LIG31    0.0000
     12 C11        14.6390   -0.9320   -0.0180 C.2       1    LIG31    0.0000
     13 S1         16.0740   -1.0780   -0.9740 S.3       1    LIG31    0.0000
     14 C12        15.8120    0.4990   -1.6560 C.2       1    LIG31    0.0000
     15 C13        14.6360    1.0770   -1.1580 C.2       1    LIG31    0.0000
     16 O1         12.1560    1.6150    0.3030 O.2       1    LIG31    0.0000
     17 C14        16.7020    1.0960   -2.5950 C.2       1    LIG31    0.0000
     18 N2         18.4460    2.3130   -4.4610 N.2       1    LIG31    0.0000
     19 C15        17.3210    2.9650   -4.0740 C.2       1    LIG31    0.0000
     20 C16        16.4390    2.3780   -3.1460 C.2       1    LIG31    0.0000
     21 N3         18.2110   -4.3890    1.8900 N.pl3     1    LIG31    0.0000
     22 S2         19.2090   -3.0370    1.7830 S.o2      1    LIG31    0.0000
     23 C17        20.8770   -3.6680    2.0100 C.3       1    LIG31    0.0000
     24 O2         19.1370   -2.5090    0.2850 O.2       1    LIG31    0.0000
     25 O3         18.9060   -2.1450    3.0630 O.2       1    LIG31    0.0000
     26 C18        18.7330    1.0920   -3.9570 C.2       1    LIG31    0.0000
     27 C19        17.8930    0.4640   -3.0340 C.2       1    LIG31    0.0000
     28 C20        18.5120   -0.7530   -2.7460 C.2       1    LIG31    0.0000
     29 C21        19.6810   -0.8140   -3.4980 C.2       1    LIG31    0.0000
     30 N4         19.7900    0.3120   -4.2190 N.pl3     1    LIG31    0.0000
     31 H1         13.1430   -4.3720    0.7810 H         1    LIG31    0.0000
     32 H2         14.3110   -6.4480    1.1400 H         1    LIG31    0.0000
     33 H3         16.6720   -6.4500    1.6570 H         1    LIG31    0.0000
     34 H4         16.7080   -2.2530    1.5190 H         1    LIG31    0.0000
     35 H5         11.4970   -0.1940    1.8260 H         1    LIG31    0.0000
     36 H6         12.5530   -2.2300    2.2480 H         1    LIG31    0.0000
     37 H7         14.2890    1.9980   -1.4270 H         1    LIG31    0.0000
     38 H8         17.1140    3.8860   -4.4600 H         1    LIG31    0.0000
     39 H9         15.6040    2.9020   -2.8840 H         1    LIG31    0.0000
     40 H10        18.6150   -5.2400    2.1150 H         1    LIG31    0.0000
     41 H11        21.5850   -2.8420    1.9520 H         1    LIG31    0.0000
     42 H12        20.9550   -4.1470    2.9860 H         1    LIG31    0.0000
     43 H13        21.1000   -4.3940    1.2280 H         1    LIG31    0.0000
     44 H14        18.1920   -1.4770   -2.1070 H         1    LIG31    0.0000
     45 H15        20.3470   -1.5870   -3.4980 H         1    LIG31    0.0000
     46 H16        20.5130    0.5280   -4.8280 H         1    LIG31    0.0000
@<TRIPOS>BOND
     1    1    2 1
     2    1    6 2
     3    1   31 1
     4    2    3 2
     5    2   32 1
     6    3    4 1
     7    3   33 1
     8    4    5 2
     9    4   21 1
    10    5    6 1
    11    5   34 1
    12    6    7 1
    13    7   10 2
    14    7   12 1
    15    8    9 1
    16    8   11 1
    17    8   16 2
    18    9   10 1
    19    9   35 1
    20   10   36 1
    21   11   12 2
    22   11   15 1
    23   12   13 1
    24   13   14 1
    25   14   15 2
    26   14   17 1
    27   15   37 1
    28   17   20 1
    29   17   27 2
    30   18   19 1
    31   18   26 2
    32   19   20 2
    33   19   38 1
    34   20   39 1
    35   21   22 1
    36   21   40 1
    37   22   23 1
    38   22   24 2
    39   22   25 2
    40   23   41 1
    41   23   42 1
    42   23   43 1
    43   26   27 1
    44   26   30 1
    45   27   28 1
    46   28   29 2
    47   28   44 1
    48   29   30 1
    49   29   45 1
    50   30   46 1
@<TRIPOS>SUBSTRUCTURE
     1    LIG31    1   GROUP 1   LIG 1
@<TRIPOS>MOLECULE
51170242
   50    52    1     0     0
SMALL
USER_CHARGES


@<TRIPOS>ATOM
      1 N1          8.5610   -8.5920    0.1730 N.2       1    LIG32    0.0000
      2 C1          9.7130   -7.9010   -0.0150 C.2       1    LIG32    0.0000
      3 N2          9.7080   -6.5460    0.0810 N.2       1    LIG32    0.0000
      4 C2          8.5800   -5.8400    0.3630 C.2       1    LIG32    0.0000
      5 C3          7.4100   -7.9380    0.4570 C.2       1    LIG32    0.0000
      6 C4          7.3860   -6.5510    0.5640 C.2       1    LIG32    0.0000
      7 C5          6.1200   -6.0730    0.8670 C.2       1    LIG32    0.0000
      8 C6          5.1870   -7.1020    0.9800 C.2       1    LIG32    0.0000
      9 S1          5.8670   -8.6800    0.7180 S.3       1    LIG32    0.0000
     10 N3          8.5840   -4.4940    0.4480 N.pl3     1    LIG32    0.0000
     11 N4          9.6260   -3.7970    0.2800 N.2       1    LIG32    0.0000
     12 C7          9.7040   -2.4880    0.3360 C.2       1    LIG32    0.0000
     13 C8          3.7550   -6.8830    1.2930 C.3       1    LIG32    0.0000
     14 C9          8.6290   -1.6020    0.5750 C.2       1    LIG32    0.0000
     15 C10         8.8470   -0.2110    0.6290 C.2       1    LIG32    0.0000
     16 C11         7.7630    0.6490    0.8700 C.2       1    LIG32    0.0000
     17 C12         6.4730    0.1270    1.0510 C.2       1    LIG32    0.0000
     18 C13         6.2880   -1.2650    0.9880 C.2       1    LIG32    0.0000
     19 N5          7.3610   -2.0610    0.7560 N.2       1    LIG32    0.0000
     20 C14         3.5990   -6.2350    2.6850 C.3       1    LIG32    0.0000
     21 C15         3.0990   -5.9660    0.2390 C.3       1    LIG32    0.0000
     22 C16         2.9950   -8.2260    1.3000 C.3       1    LIG32    0.0000
     23 C17         4.9600   -1.8700    1.1720 C.3       1    LIG32    0.0000
     24 N6          4.4020   -1.6050    2.5170 N.3       1    LIG32    1.0000
     25 C18         2.9950   -2.0420    2.5590 C.3       1    LIG32    0.0000
     26 C19         5.1610   -2.3130    3.5690 C.3       1    LIG32    0.0000
     27 H1         10.5790   -8.3960   -0.2280 H         1    LIG32    0.0000
     28 H2          5.8970   -5.0850    0.9910 H         1    LIG32    0.0000
     29 H3          7.7470   -4.0460    0.6450 H         1    LIG32    0.0000
     30 H4         10.6310   -2.0870    0.1900 H         1    LIG32    0.0000
     31 H5          9.7820    0.1790    0.4980 H         1    LIG32    0.0000
     32 H6          7.9140    1.6570    0.9130 H         1    LIG32    0.0000
     33 H7          5.6840    0.7490    1.2280 H         1    LIG32    0.0000
     34 H8          2.5400   -6.1130    2.9180 H         1    LIG32    0.0000
     35 H9          4.0570   -6.8660    3.4480 H         1    LIG32    0.0000
     36 H10         4.0730   -5.2540    2.7000 H         1    LIG32    0.0000
     37 H11         2.0370   -5.8520    0.4610 H         1    LIG32    0.0000
     38 H12         3.5630   -4.9790    0.2490 H         1    LIG32    0.0000
     39 H13         3.2050   -6.4000   -0.7560 H         1    LIG32    0.0000
     40 H14         1.9420   -8.0520    1.5290 H         1    LIG32    0.0000
     41 H15         3.0650   -8.7050    0.3220 H         1    LIG32    0.0000
     42 H16         3.4110   -8.8920    2.0570 H         1    LIG32    0.0000
     43 H17         4.2930   -1.4530    0.4140 H         1    LIG32    0.0000
     44 H18         5.0230   -2.9470    1.0100 H         1    LIG32    0.0000
     45 H19         2.5740   -1.8340    3.5440 H         1    LIG32    0.0000
     46 H20         2.4170   -1.4930    1.8130 H         1    LIG32    0.0000
     47 H21         2.9190   -3.1110    2.3550 H         1    LIG32    0.0000
     48 H22         4.6950   -2.1390    4.5400 H         1    LIG32    0.0000
     49 H23         5.1800   -3.3860    3.3710 H         1    LIG32    0.0000
     50 H24         6.1850   -1.9410    3.6090 H         1    LIG32    0.0000
@<TRIPOS>BOND
     1    1    2 2
     2    1    5 1
     3    2    3 1
     4    2   27 1
     5    3    4 2
     6    4    6 1
     7    4   10 1
     8    5    6 2
     9    5    9 1
    10    6    7 1
    11    7    8 2
    12    7   28 1
    13    8    9 1
    14    8   13 1
    15   10   11 1
    16   10   29 1
    17   11   12 2
    18   12   14 1
    19   12   30 1
    20   13   20 1
    21   13   21 1
    22   13   22 1
    23   14   15 2
    24   14   19 1
    25   15   16 1
    26   15   31 1
    27   16   17 2
    28   16   32 1
    29   17   18 1
    30   17   33 1
    31   18   19 2
    32   18   23 1
    33   20   34 1
    34   20   35 1
    35   20   36 1
    36   21   37 1
    37   21   38 1
    38   21   39 1
    39   22   40 1
    40   22   41 1
    41   22   42 1
    42   23   24 1
    43   23   43 1
    44   23   44 1
    45   24   25 1
    46   24   26 1
    47   25   45 1
    48   25   46 1
    49   25   47 1
    50   26   48 1
    51   26   49 1
    52   26   50 1
@<TRIPOS>SUBSTRUCTURE
     1    LIG32    1   GROUP 1   LIG 1
@<TRIPOS>MOLECULE
51170215
   31    33    1     0     0
SMALL
USER_CHARGES


@<TRIPOS>ATOM
      1 N1          0.9810   -1.1270    1.5340 N.2       1    LIG33    0.0000
      2 C1          1.1660   -1.9430    0.4660 C.2       1    LIG33    0.0000
      3 N2          1.4990   -1.4110   -0.7370 N.2       1    LIG33    0.0000
      4 C2          1.6600   -0.0730   -0.9240 C.2       1    LIG33    0.0000
      5 C3          1.1280    0.2120    1.4030 C.2       1    LIG33    0.0000
      6 C4          1.4700    0.7770    0.1770 C.2       1    LIG33    0.0000
      7 C5          1.5710    2.1590    0.2510 C.2       1    LIG33    0.0000
      8 C6          1.2980    2.6210    1.5360 C.2       1    LIG33    0.0000
      9 S1          0.9210    1.3680    2.6770 S.3       1    LIG33    0.0000
     10 N3          1.9910    0.4370   -2.1310 N.pl3     1    LIG33    0.0000
     11 N4          2.1600   -0.2950   -3.1480 N.2       1    LIG33    0.0000
     12 C7          2.5230    0.0870   -4.3490 C.2       1    LIG33    0.0000
     13 C8          2.8130    1.4090   -4.7380 C.2       1    LIG33    0.0000
     14 S2          2.7420    2.7850   -3.6820 S.3       1    LIG33    0.0000
     15 C9          3.2340    3.7930   -5.0020 C.2       1    LIG33    0.0000
     16 C10         3.4380    3.0990   -6.1850 C.2       1    LIG33    0.0000
     17 C11         3.1980    1.7420   -6.0350 C.2       1    LIG33    0.0000
     18 C12         1.3320    4.0390    1.9170 C.3       1    LIG33    0.0000
     19 C13         0.2700    4.8650    1.1730 C.3       1    LIG33    0.0000
     20 H1          1.0550   -2.9520    0.5670 H         1    LIG33    0.0000
     21 H2          1.8140    2.7630   -0.5350 H         1    LIG33    0.0000
     22 H3          2.0960    1.3950   -2.2120 H         1    LIG33    0.0000
     23 H4          2.6030   -0.6470   -5.0540 H         1    LIG33    0.0000
     24 H5          3.3610    4.8010   -4.9160 H         1    LIG33    0.0000
     25 H6          3.7310    3.5350   -7.0600 H         1    LIG33    0.0000
     26 H7          3.2970    1.0670   -6.7950 H         1    LIG33    0.0000
     27 H8          1.1460    4.1190    2.9880 H         1    LIG33    0.0000
     28 H9          2.3200    4.4480    1.7030 H         1    LIG33    0.0000
     29 H10         0.3170    5.8990    1.5150 H         1    LIG33    0.0000
     30 H11         0.4550    4.8400    0.0980 H         1    LIG33    0.0000
     31 H12        -0.7250    4.4670    1.3790 H         1    LIG33    0.0000
@<TRIPOS>BOND
     1    1    2 2
     2    1    5 1
     3    2    3 1
     4    2   20 1
     5    3    4 2
     6    4    6 1
     7    4   10 1
     8    5    6 2
     9    5    9 1
    10    6    7 1
    11    7    8 2
    12    7   21 1
    13    8    9 1
    14    8   18 1
    15   10   11 1
    16   10   22 1
    17   11   12 2
    18   12   13 1
    19   12   23 1
    20   13   14 1
    21   13   17 2
    22   14   15 1
    23   15   16 2
    24   15   24 1
    25   16   17 1
    26   16   25 1
    27   17   26 1
    28   18   19 1
    29   18   27 1
    30   18   28 1
    31   19   29 1
    32   19   30 1
    33   19   31 1
@<TRIPOS>SUBSTRUCTURE
     1    LIG33    1   GROUP 1   LIG 1
@<TRIPOS>MOLECULE
50826141
   63    69    1     0     0
SMALL
USER_CHARGES


@<TRIPOS>ATOM
      1 C1          0.7580    3.1890    0.4010 C.2       1    LIG34    0.0000
      2 C2          1.4210    2.7680    1.5640 C.2       1    LIG34    0.0000
      3 C3         -0.5190    2.8310   -0.1180 C.2       1    LIG34    0.0000
      4 C4          0.9270    2.0970    2.7170 C.2       1    LIG34    0.0000
      5 C5          1.6650    4.0180   -0.2750 C.2       1    LIG34    0.0000
      6 C6          2.7370    3.2390    1.4450 C.2       1    LIG34    0.0000
      7 N1          0.9100    0.7470    4.5270 N.pl3     1    LIG34    0.0000
      8 N2          2.8380    4.0010    0.3570 N.am      1    LIG34    0.0000
      9 N3         -1.2380    1.6920    0.0270 N.pl3     1    LIG34    0.0000
     10 C7          1.6870    1.2920    3.5730 C.2       1    LIG34    0.0000
     11 C8         -1.5750   -2.5590    5.7710 C.2       1    LIG34    0.0000
     12 N4         -0.8760   -1.3680    5.7740 N.am      1    LIG34    0.0000
     13 C9         -0.3590    2.0800    3.2690 C.2       1    LIG34    0.0000
     14 C10        -0.3390    1.2030    4.3540 C.2       1    LIG34    0.0000
     15 N5         -2.4730    3.0670   -1.2080 N.2       1    LIG34    0.0000
     16 C11        -1.2980    3.6520   -0.9380 C.2       1    LIG34    0.0000
     17 C12        -2.4190    1.8710   -0.6090 C.2       1    LIG34    0.0000
     18 C13        -1.4970    0.9010    5.0920 C.2       1    LIG34    0.0000
     19 N6         -2.9370   -2.7290    5.7000 N.am      1    LIG34    0.0000
     20 C14        -1.4660   -0.1120    6.1700 C.3       1    LIG34    0.0000
     21 C15         1.3390   -0.1290    5.5630 C.3       1    LIG34    0.0000
     22 C16        -0.9120    0.4960    0.5970 C.2       1    LIG34    0.0000
     23 O1          1.4820    4.6120   -1.3600 O.2       1    LIG34    0.0000
     24 O2          3.6720    3.0860    2.2620 O.2       1    LIG34    0.0000
     25 C17         0.5480   -1.4510    5.5530 C.3       1    LIG34    0.0000
     26 O3         -0.8950   -3.6090    5.8500 O.2       1    LIG34    0.0000
     27 C18        -3.4060    0.8750   -0.6270 C.2       1    LIG34    0.0000
     28 C19        -1.8590   -0.5440    0.6170 C.2       1    LIG34    0.0000
     29 C20        -3.1130   -0.3420    0.0110 C.2       1    LIG34    0.0000
     30 C21        -1.5370    2.7880    2.9600 C.2       1    LIG34    0.0000
     31 C22        -2.6820    1.5950    4.7600 C.2       1    LIG34    0.0000
     32 C23        -3.8210   -1.7870    5.0870 C.3       1    LIG34    0.0000
     33 C24        -3.5520   -3.9380    6.1690 C.3       1    LIG34    0.0000
     34 C25        -2.7000    2.5360    3.7110 C.2       1    LIG34    0.0000
     35 C26        -4.2780   -4.6600    5.0260 C.3       1    LIG34    0.0000
     36 C27        -4.6080   -2.4370    3.9350 C.3       1    LIG34    0.0000
     37 C28        -5.3140   -3.7160    4.4030 C.3       1    LIG34    0.0000
     38 H1          3.6370    4.4680    0.0710 H         1    LIG34    0.0000
     39 H2          2.6850    1.1020    3.4670 H         1    LIG34    0.0000
     40 H3         -1.0400    4.5890   -1.2500 H         1    LIG34    0.0000
     41 H4         -2.4700   -0.2620    6.5700 H         1    LIG34    0.0000
     42 H5         -0.8800    0.2910    6.9960 H         1    LIG34    0.0000
     43 H6          2.3970   -0.3680    5.4350 H         1    LIG34    0.0000
     44 H7          1.2250    0.3610    6.5300 H         1    LIG34    0.0000
     45 H8          0.0100    0.3330    0.9980 H         1    LIG34    0.0000
     46 H9          0.7220   -1.9240    4.5840 H         1    LIG34    0.0000
     47 H10         0.9870   -2.0880    6.3240 H         1    LIG34    0.0000
     48 H11        -4.2980    1.0230   -1.0990 H         1    LIG34    0.0000
     49 H12        -1.6360   -1.4370    1.0570 H         1    LIG34    0.0000
     50 H13        -3.8050   -1.0910    0.0180 H         1    LIG34    0.0000
     51 H14        -1.5570    3.4830    2.2160 H         1    LIG34    0.0000
     52 H15        -3.5390    1.4160    5.2840 H         1    LIG34    0.0000
     53 H16        -3.2810   -0.9640    4.6360 H         1    LIG34    0.0000
     54 H17        -4.5180   -1.3990    5.8310 H         1    LIG34    0.0000
     55 H18        -2.8340   -4.6310    6.6120 H         1    LIG34    0.0000
     56 H19        -4.2810   -3.6800    6.9380 H         1    LIG34    0.0000
     57 H20        -3.5620    3.0360    3.4930 H         1    LIG34    0.0000
     58 H21        -3.5540   -4.9640    4.2680 H         1    LIG34    0.0000
     59 H22        -4.7820   -5.5450    5.4150 H         1    LIG34    0.0000
     60 H23        -5.3500   -1.7300    3.5610 H         1    LIG34    0.0000
     61 H24        -3.9180   -2.6840    3.1270 H         1    LIG34    0.0000
     62 H25        -6.0730   -3.4640    5.1440 H         1    LIG34    0.0000
     63 H26        -5.7900   -4.2030    3.5510 H         1    LIG34    0.0000
@<TRIPOS>BOND
     1    1    2 2
     2    1    3 1
     3    1    5 1
     4    2    4 1
     5    2    6 1
     6    3    9 1
     7    3   16 2
     8    4   10 2
     9    4   13 1
    10    5    8 1
    11    5   23 2
    12    6    8 1
    13    6   24 2
    14    7   10 1
    15    7   14 1
    16    7   21 1
    17    8   38 1
    18    9   17 1
    19    9   22 1
    20   10   39 1
    21   11   12 1
    22   11   19 1
    23   11   26 2
    24   12   20 1
    25   12   25 1
    26   13   14 1
    27   13   30 2
    28   14   18 2
    29   15   16 1
    30   15   17 2
    31   16   40 1
    32   17   27 1
    33   18   20 1
    34   18   31 1
    35   19   32 1
    36   19   33 1
    37   20   41 1
    38   20   42 1
    39   21   25 1
    40   21   43 1
    41   21   44 1
    42   22   28 2
    43   22   45 1
    44   25   46 1
    45   25   47 1
    46   27   29 2
    47   27   48 1
    48   28   29 1
    49   28   49 1
    50   29   50 1
    51   30   34 1
    52   30   51 1
    53   31   34 2
    54   31   52 1
    55   32   36 1
    56   32   53 1
    57   32   54 1
    58   33   35 1
    59   33   55 1
    60   33   56 1
    61   34   57 1
    62   35   37 1
    63   35   58 1
    64   35   59 1
    65   36   37 1
    66   36   60 1
    67   36   61 1
    68   37   62 1
    69   37   63 1
@<TRIPOS>SUBSTRUCTURE
     1    LIG34    1   GROUP 1   LIG 1
@<TRIPOS>MOLECULE
111437
   24    25    1     0     0
SMALL
USER_CHARGES


@<TRIPOS>ATOM
      1 C1         -0.7300    4.7770    0.2820 C.2       1    LIG35    0.0000
      2 C2         -2.5210    3.4600    0.3870 C.2       1    LIG35    0.0000
      3 C3         -1.5020    2.5350    0.6410 C.2       1    LIG35    0.0000
      4 N1         -2.0640    4.7030    0.1910 N.2       1    LIG35    0.0000
      5 C4         -0.0030    6.0320    0.1070 C.3       1    LIG35    0.0000
      6 C5         -3.9590    3.1730    0.3270 C.3       1    LIG35    0.0000
      7 S1          0.0640    3.2790    0.6240 S.3       1    LIG35    0.0000
      8 C6         -1.6560    1.1550    0.8900 C.2       1    LIG35    0.0000
      9 C7         -0.5330    0.3410    1.1310 C.2       1    LIG35    0.0000
     10 C8         -0.7440   -1.0240    1.3720 C.2       1    LIG35    0.0000
     11 C9         -3.0720   -0.7390    1.1390 C.2       1    LIG35    0.0000
     12 N2         -2.8870    0.5800    0.9030 N.2       1    LIG35    0.0000
     13 N3         -2.0000   -1.5290    1.3710 N.2       1    LIG35    0.0000
     14 N4         -4.3040   -1.2550    1.1420 N.pl3     1    LIG35    0.0000
     15 H1          1.0670    5.8550    0.2210 H         1    LIG35    0.0000
     16 H2         -0.1990    6.4310   -0.8880 H         1    LIG35    0.0000
     17 H3         -0.3320    6.7500    0.8580 H         1    LIG35    0.0000
     18 H4         -4.5120    4.0890    0.1150 H         1    LIG35    0.0000
     19 H5         -4.1590    2.4500   -0.4650 H         1    LIG35    0.0000
     20 H6         -4.2960    2.7710    1.2830 H         1    LIG35    0.0000
     21 H7          0.4150    0.7180    1.1330 H         1    LIG35    0.0000
     22 H8          0.0500   -1.6390    1.5500 H         1    LIG35    0.0000
     23 H9         -4.4290   -2.2010    1.3120 H         1    LIG35    0.0000
     24 H10        -5.0680   -0.6830    0.9740 H         1    LIG35    0.0000
@<TRIPOS>BOND
     1    1    4 2
     2    1    5 1
     3    1    7 1
     4    2    3 2
     5    2    4 1
     6    2    6 1
     7    3    7 1
     8    3    8 1
     9    5   15 1
    10    5   16 1
    11    5   17 1
    12    6   18 1
    13    6   19 1
    14    6   20 1
    15    8    9 2
    16    8   12 1
    17    9   10 1
    18    9   21 1
    19   10   13 2
    20   10   22 1
    21   11   12 2
    22   11   13 1
    23   11   14 1
    24   14   23 1
    25   14   24 1
@<TRIPOS>SUBSTRUCTURE
     1    LIG35    1   GROUP 1   LIG 1
@<TRIPOS>MOLECULE
50455433
   38    40    1     0     0
SMALL
USER_CHARGES


@<TRIPOS>ATOM
      1 C1         -3.6560  -23.3150    0.4900 C.2       1    LIG36    0.0000
      2 C2         -3.2730  -24.4500   -0.2400 C.2       1    LIG36    0.0000
      3 C3         -2.1560  -25.1940    0.1620 C.2       1    LIG36    0.0000
      4 C4         -2.9160  -22.9310    1.6230 C.2       1    LIG36    0.0000
      5 C5         -1.7800  -23.6620    2.0580 C.2       1    LIG36    0.0000
      6 C6         -1.4100  -24.8110    1.2980 C.2       1    LIG36    0.0000
      7 C7         -0.2810  -25.5650    1.6960 C.2       1    LIG36    0.0000
      8 N1          0.4330  -25.1980    2.7820 N.am      1    LIG36    0.0000
      9 C8          0.1210  -24.1170    3.5350 C.2       1    LIG36    0.0000
     10 C9         -1.0010  -23.2900    3.2170 C.2       1    LIG36    0.0000
     11 O1          0.8760  -23.9070    4.5110 O.2       1    LIG36    0.0000
     12 O2          0.0970  -26.5830    1.0730 O.2       1    LIG36    0.0000
     13 C10        -1.3130  -22.1720    4.0120 C.2       1    LIG36    0.0000
     14 N2         -0.5960  -21.7960    5.0940 N.pl3     1    LIG36    0.0000
     15 C11        -0.9490  -20.6650    5.8760 C.3       1    LIG36    0.0000
     16 C12         0.0050  -20.5020    6.9880 C.2       1    LIG36    0.0000
     17 C13         0.8180  -19.3540    7.0800 C.2       1    LIG36    0.0000
     18 C14         1.7250  -19.2020    8.1430 C.2       1    LIG36    0.0000
     19 C15         1.8270  -20.2030    9.1300 C.2       1    LIG36    0.0000
     20 C16         1.0170  -21.3490    9.0440 C.2       1    LIG36    0.0000
     21 C17         0.1110  -21.4970    7.9800 C.2       1    LIG36    0.0000
     22 O3          2.4870  -18.0840    8.1930 O.3       1    LIG36    0.0000
     23 Br1        -5.1380  -22.3220   -0.0450 Br        1    LIG36    0.0000
     24 N3          2.6880  -20.0840   10.1570 N.pl3     1    LIG36    0.0000
     25 H1         -3.8000  -24.7410   -1.0650 H         1    LIG36    0.0000
     26 H2         -1.8890  -26.0180   -0.3800 H         1    LIG36    0.0000
     27 H3         -3.2230  -22.1020    2.1290 H         1    LIG36    0.0000
     28 H4          1.2020  -25.7310    3.0330 H         1    LIG36    0.0000
     29 H5         -2.1200  -21.5950    3.7830 H         1    LIG36    0.0000
     30 H6          0.1860  -22.3140    5.3470 H         1    LIG36    0.0000
     31 H7         -0.9490  -19.7770    5.2390 H         1    LIG36    0.0000
     32 H8         -1.9530  -20.7970    6.2850 H         1    LIG36    0.0000
     33 H9          0.7520  -18.6240    6.3690 H         1    LIG36    0.0000
     34 H10         1.0840  -22.0800    9.7550 H         1    LIG36    0.0000
     35 H11        -0.4720  -22.3330    7.9270 H         1    LIG36    0.0000
     36 H12         3.0980  -18.0370    8.9550 H         1    LIG36    0.0000
     37 H13         2.7360  -20.7810   10.8290 H         1    LIG36    0.0000
     38 H14         3.2620  -19.3080   10.2300 H         1    LIG36    0.0000
@<TRIPOS>BOND
     1    1    2 2
     2    1    4 1
     3    1   23 1
     4    2    3 1
     5    2   25 1
     6    3    6 2
     7    3   26 1
     8    4    5 2
     9    4   27 1
    10    5    6 1
    11    5   10 1
    12    6    7 1
    13    7    8 1
    14    7   12 2
    15    8    9 1
    16    8   28 1
    17    9   10 1
    18    9   11 2
    19   10   13 2
    20   13   14 1
    21   13   29 1
    22   14   15 1
    23   14   30 1
    24   15   16 1
    25   15   31 1
    26   15   32 1
    27   16   17 2
    28   16   21 1
    29   17   18 1
    30   17   33 1
    31   18   19 2
    32   18   22 1
    33   19   20 1
    34   19   24 1
    35   20   21 2
    36   20   34 1
    37   21   35 1
    38   22   36 1
    39   24   37 1
    40   24   38 1
@<TRIPOS>SUBSTRUCTURE
     1    LIG36    1   GROUP 1   LIG 1
@<TRIPOS>MOLECULE
50416750
   46    49    1     0     0
SMALL
USER_CHARGES


@<TRIPOS>ATOM
      1 C1          0.3560   -2.3140    0.5140 C.2       1    LIG37    0.0000
      2 C2          1.6450   -1.7350    0.7130 C.2       1    LIG37    0.0000
      3 C3          2.2710   -1.2820    1.8840 C.2       1    LIG37    0.0000
      4 C4          3.5260   -0.7900    1.5100 C.2       1    LIG37    0.0000
      5 N1          3.6840   -0.9510    0.1990 N.am      1    LIG37    0.0000
      6 C5          2.5950   -1.5340   -0.3040 C.2       1    LIG37    0.0000
      7 O1          2.4660   -1.7900   -1.5210 O.2       1    LIG37    0.0000
      8 O2          4.4020   -0.3190    2.2690 O.2       1    LIG37    0.0000
      9 C6          1.8740   -1.4280    3.2320 C.2       1    LIG37    0.0000
     10 C7         -0.8290   -2.2270    1.2620 C.2       1    LIG37    0.0000
     11 C8         -1.7770   -3.0460    0.6430 C.2       1    LIG37    0.0000
     12 N2         -1.2370   -3.5890   -0.4500 N.pl3     1    LIG37    0.0000
     13 C9          0.0250   -3.1490   -0.5620 C.2       1    LIG37    0.0000
     14 C10         1.5240   -2.6940    3.7410 C.2       1    LIG37    0.0000
     15 C11         1.1210   -2.8580    5.0830 C.2       1    LIG37    0.0000
     16 C12         1.0880   -1.7310    5.9390 C.2       1    LIG37    0.0000
     17 C13         1.4540   -0.4620    5.4450 C.2       1    LIG37    0.0000
     18 C14         1.8480   -0.3190    4.0990 C.2       1    LIG37    0.0000
     19 O3          1.4040    0.5930    6.3160 O.3       1    LIG37    0.0000
     20 O4          0.7580   -4.0810    5.5750 O.3       1    LIG37    0.0000
     21 C15         0.6750   -5.2640    4.7750 C.3       1    LIG37    0.0000
     22 O5          0.7160   -1.7570    7.2590 O.3       1    LIG37    0.0000
     23 C16         0.3000   -2.9250    7.9700 C.3       1    LIG37    0.0000
     24 C17         1.7320    1.9330    5.9390 C.3       1    LIG37    0.0000
     25 C18        -1.2110   -1.4540    2.3770 C.2       1    LIG37    0.0000
     26 C19        -2.5150   -1.5860    2.8960 C.2       1    LIG37    0.0000
     27 C20        -3.4410   -2.4570    2.2890 C.2       1    LIG37    0.0000
     28 C21        -3.0810   -3.1900    1.1430 C.2       1    LIG37    0.0000
     29 H1          4.4720   -0.7010   -0.3070 H         1    LIG37    0.0000
     30 H2         -1.6850   -4.1900   -1.0660 H         1    LIG37    0.0000
     31 H3          0.6590   -3.4300   -1.3110 H         1    LIG37    0.0000
     32 H4          1.5530   -3.5070    3.1240 H         1    LIG37    0.0000
     33 H5          2.1120    0.6020    3.7470 H         1    LIG37    0.0000
     34 H6          0.3380   -6.0890    5.4030 H         1    LIG37    0.0000
     35 H7         -0.0410   -5.1230    3.9640 H         1    LIG37    0.0000
     36 H8          1.6540   -5.5130    4.3630 H         1    LIG37    0.0000
     37 H9          0.0660   -2.6430    8.9960 H         1    LIG37    0.0000
     38 H10        -0.5940   -3.3490    7.5110 H         1    LIG37    0.0000
     39 H11         1.1000   -3.6660    7.9830 H         1    LIG37    0.0000
     40 H12         1.6080    2.5820    6.8060 H         1    LIG37    0.0000
     41 H13         2.7690    1.9880    5.6030 H         1    LIG37    0.0000
     42 H14         1.0680    2.2760    5.1440 H         1    LIG37    0.0000
     43 H15        -0.5760   -0.7820    2.7980 H         1    LIG37    0.0000
     44 H16        -2.7930   -1.0370    3.7090 H         1    LIG37    0.0000
     45 H17        -4.3840   -2.5430    2.6700 H         1    LIG37    0.0000
     46 H18        -3.7540   -3.8020    0.6800 H         1    LIG37    0.0000
@<TRIPOS>BOND
     1    1    2 1
     2    1   10 1
     3    1   13 2
     4    2    3 2
     5    2    6 1
     6    3    4 1
     7    3    9 1
     8    4    5 1
     9    4    8 2
    10    5    6 1
    11    5   29 1
    12    6    7 2
    13    9   14 2
    14    9   18 1
    15   10   11 1
    16   10   25 2
    17   11   12 1
    18   11   28 2
    19   12   13 1
    20   12   30 1
    21   13   31 1
    22   14   15 1
    23   14   32 1
    24   15   16 2
    25   15   20 1
    26   16   17 1
    27   16   22 1
    28   17   18 2
    29   17   19 1
    30   18   33 1
    31   19   24 1
    32   20   21 1
    33   21   34 1
    34   21   35 1
    35   21   36 1
    36   22   23 1
    37   23   37 1
    38   23   38 1
    39   23   39 1
    40   24   40 1
    41   24   41 1
    42   24   42 1
    43   25   26 1
    44   25   43 1
    45   26   27 2
    46   26   44 1
    47   27   28 1
    48   27   45 1
    49   28   46 1
@<TRIPOS>SUBSTRUCTURE
     1    LIG37    1   GROUP 1   LIG 1
@<TRIPOS>MOLECULE
50724378
   35    37    1     0     0
SMALL
USER_CHARGES


@<TRIPOS>ATOM
      1 N1          2.4380    1.5180    0.8510 N.2       1    LIG38    0.0000
      2 C1          2.3910    2.8750    0.7670 C.2       1    LIG38    0.0000
      3 N2          1.2070    3.5080    0.5660 N.2       1    LIG38    0.0000
      4 C2          0.0820    2.7670    0.4520 C.2       1    LIG38    0.0000
      5 C3          0.0960    1.3830    0.5330 C.2       1    LIG38    0.0000
      6 C4          1.3240    0.7420    0.7400 C.2       1    LIG38    0.0000
      7 O1          1.3740   -0.6140    0.8220 O.3       1    LIG38    0.0000
      8 C5          2.6270   -1.2660    1.0410 C.3       1    LIG38    0.0000
      9 N3         -1.1520    0.9120    0.3870 N.2       1    LIG38    0.0000
     10 C6         -1.9250    2.0030    0.2160 C.2       1    LIG38    0.0000
     11 N4         -1.1870    3.1280    0.2540 N.pl3     1    LIG38    0.0000
     12 N5          3.5150    3.5870    0.8840 N.pl3     1    LIG38    0.0000
     13 C7          2.4290   -2.7910    1.0850 C.3       1    LIG38    0.0000
     14 C8          1.4950   -3.1790    2.2460 C.3       1    LIG38    0.0000
     15 C9          1.3010   -4.7030    2.2910 C.3       1    LIG38    0.0000
     16 C10         0.7360   -5.2130    0.9570 C.3       1    LIG38    0.0000
     17 C11         1.6650   -4.8240   -0.2030 C.3       1    LIG38    0.0000
     18 C12         1.8570   -3.3010   -0.2500 C.3       1    LIG38    0.0000
     19 H1          3.3200   -1.0220    0.2330 H         1    LIG38    0.0000
     20 H2          3.0570   -0.9370    1.9890 H         1    LIG38    0.0000
     21 H3         -2.9360    1.9800    0.0770 H         1    LIG38    0.0000
     22 H4         -1.5160    4.0340    0.1560 H         1    LIG38    0.0000
     23 H5          3.4830    4.5540    0.8240 H         1    LIG38    0.0000
     24 H6          4.3600    3.1350    1.0280 H         1    LIG38    0.0000
     25 H7          3.4020   -3.2560    1.2490 H         1    LIG38    0.0000
     26 H8          0.5250   -2.6970    2.1140 H         1    LIG38    0.0000
     27 H9          1.9300   -2.8470    3.1880 H         1    LIG38    0.0000
     28 H10         2.2600   -5.1840    2.4870 H         1    LIG38    0.0000
     29 H11         0.6080   -4.9530    3.0950 H         1    LIG38    0.0000
     30 H12         0.6440   -6.2980    0.9960 H         1    LIG38    0.0000
     31 H13        -0.2510   -4.7790    0.7920 H         1    LIG38    0.0000
     32 H14         2.6340   -5.3070   -0.0700 H         1    LIG38    0.0000
     33 H15         1.2270   -5.1610   -1.1440 H         1    LIG38    0.0000
     34 H16         0.8950   -2.8230   -0.4450 H         1    LIG38    0.0000
     35 H17         2.5450   -3.0520   -1.0590 H         1    LIG38    0.0000
@<TRIPOS>BOND
     1    1    2 2
     2    1    6 1
     3    2    3 1
     4    2   12 1
     5    3    4 2
     6    4    5 1
     7    4   11 1
     8    5    6 2
     9    5    9 1
    10    6    7 1
    11    7    8 1
    12    8   13 1
    13    8   19 1
    14    8   20 1
    15    9   10 2
    16   10   11 1
    17   10   21 1
    18   11   22 1
    19   12   23 1
    20   12   24 1
    21   13   14 1
    22   13   18 1
    23   13   25 1
    24   14   15 1
    25   14   26 1
    26   14   27 1
    27   15   16 1
    28   15   28 1
    29   15   29 1
    30   16   17 1
    31   16   30 1
    32   16   31 1
    33   17   18 1
    34   17   32 1
    35   17   33 1
    36   18   34 1
    37   18   35 1
@<TRIPOS>SUBSTRUCTURE
     1    LIG38    1   GROUP 1   LIG 1
@<TRIPOS>MOLECULE
50434124
   47    49    1     0     0
SMALL
USER_CHARGES


@<TRIPOS>ATOM
      1 C1         -2.4320    3.1200   -0.3860 C.2       1    LIG39    0.0000
      2 C2         -3.1660    2.0230    0.0960 C.2       1    LIG39    0.0000
      3 C3         -2.6470    1.2570    1.1540 C.2       1    LIG39    0.0000
      4 C4         -1.4080    1.5890    1.7270 C.2       1    LIG39    0.0000
      5 C5         -0.6680    2.6970    1.2600 C.2       1    LIG39    0.0000
      6 C6         -1.1920    3.4470    0.1870 C.2       1    LIG39    0.0000
      7 N1          0.5410    3.1040    1.7360 N.pl3     1    LIG39    0.0000
      8 S1         -4.7030    1.6140   -0.6010 S.o2      1    LIG39    0.0000
      9 C7         -5.9200    2.2350    0.5700 C.3       1    LIG39    0.0000
     10 O1         -4.9510    2.4780   -1.9130 O.2       1    LIG39    0.0000
     11 O2         -4.8880    0.0360   -0.5220 O.2       1    LIG39    0.0000
     12 C8          1.2470    2.6790    2.8130 C.2       1    LIG39    0.0000
     13 N2          0.8160    1.8040    3.7590 N.2       1    LIG39    0.0000
     14 C9          1.5610    1.4170    4.8310 C.2       1    LIG39    0.0000
     15 C10         2.8630    1.9540    4.9360 C.2       1    LIG39    0.0000
     16 C11         3.2990    2.8670    3.9690 C.2       1    LIG39    0.0000
     17 N3          2.4850    3.2050    2.9470 N.2       1    LIG39    0.0000
     18 C12         1.0500    0.4940    5.7950 C.2       1    LIG39    0.0000
     19 C13         1.8340   -0.1190    6.7730 C.2       1    LIG39    0.0000
     20 N4          1.0990   -0.9690    7.4870 N.2       1    LIG39    0.0000
     21 C14        -0.1420   -0.8950    6.9940 C.2       1    LIG39    0.0000
     22 N5         -0.2090    0.0090    5.9820 N.pl3     1    LIG39    0.0000
     23 C15        -1.1940   -1.7330    7.5810 C.3       1    LIG39    0.0000
     24 C16        -1.4130    0.4160    5.3040 C.3       1    LIG39    0.0000
     25 C17        -1.9870   -0.7000    4.4120 C.3       1    LIG39    0.0000
     26 C18        -2.4770    0.9930    6.2570 C.3       1    LIG39    0.0000
     27 H1         -2.7980    3.6800   -1.1570 H         1    LIG39    0.0000
     28 H2         -3.1690    0.4530    1.5020 H         1    LIG39    0.0000
     29 H3         -1.0420    0.9980    2.4670 H         1    LIG39    0.0000
     30 H4         -0.6720    4.2460   -0.1770 H         1    LIG39    0.0000
     31 H5          0.9680    3.8110    1.2300 H         1    LIG39    0.0000
     32 H6         -6.9200    2.0080    0.2030 H         1    LIG39    0.0000
     33 H7         -5.7720    1.7580    1.5390 H         1    LIG39    0.0000
     34 H8         -5.8080    3.3140    0.6740 H         1    LIG39    0.0000
     35 H9          3.4870    1.7150    5.7060 H         1    LIG39    0.0000
     36 H10         4.2300    3.2780    4.0370 H         1    LIG39    0.0000
     37 H11         2.8340    0.0230    6.9160 H         1    LIG39    0.0000
     38 H12        -2.1340   -1.6550    7.0490 H         1    LIG39    0.0000
     39 H13        -0.8710   -2.7740    7.5530 H         1    LIG39    0.0000
     40 H14        -1.3470   -1.4380    8.6190 H         1    LIG39    0.0000
     41 H15        -1.2000    1.2460    4.6420 H         1    LIG39    0.0000
     42 H16        -2.8390   -0.3140    3.8540 H         1    LIG39    0.0000
     43 H17        -1.2220   -1.0280    3.7080 H         1    LIG39    0.0000
     44 H18        -2.3120   -1.5550    5.0000 H         1    LIG39    0.0000
     45 H19        -3.2650    1.4650    5.6690 H         1    LIG39    0.0000
     46 H20        -2.9260    0.2250    6.8800 H         1    LIG39    0.0000
     47 H21        -2.0180    1.7480    6.8970 H         1    LIG39    0.0000
@<TRIPOS>BOND
     1    1    2 2
     2    1    6 1
     3    1   27 1
     4    2    3 1
     5    2    8 1
     6    3    4 2
     7    3   28 1
     8    4    5 1
     9    4   29 1
    10    5    6 2
    11    5    7 1
    12    6   30 1
    13    7   12 1
    14    7   31 1
    15    8    9 1
    16    8   10 2
    17    8   11 2
    18    9   32 1
    19    9   33 1
    20    9   34 1
    21   12   13 2
    22   12   17 1
    23   13   14 1
    24   14   15 2
    25   14   18 1
    26   15   16 1
    27   15   35 1
    28   16   17 2
    29   16   36 1
    30   18   19 2
    31   18   22 1
    32   19   20 1
    33   19   37 1
    34   20   21 2
    35   21   22 1
    36   21   23 1
    37   22   24 1
    38   23   38 1
    39   23   39 1
    40   23   40 1
    41   24   25 1
    42   24   26 1
    43   24   41 1
    44   25   42 1
    45   25   43 1
    46   25   44 1
    47   26   45 1
    48   26   46 1
    49   26   47 1
@<TRIPOS>SUBSTRUCTURE
     1    LIG39    1   GROUP 1   LIG 1
@<TRIPOS>MOLECULE
50511846
   39    43    1     0     0
SMALL
USER_CHARGES


@<TRIPOS>ATOM
      1 C1          5.4720  -11.4190    0.5890 C.2       1    LIG40    0.0000
      2 N1          3.4180  -10.7550    0.3670 N.2       1    LIG40    0.0000
      3 N2          4.1770  -11.7980    0.5580 N.2       1    LIG40    0.0000
      4 C2          4.2410   -9.7010    0.2750 C.2       1    LIG40    0.0000
      5 N3          5.4860  -10.0970    0.4140 N.pl3     1    LIG40    0.0000
      6 N4          6.3850   -9.1840    0.3310 N.2       1    LIG40    0.0000
      7 C3          5.7820   -7.9980    0.1020 C.2       1    LIG40    0.0000
      8 S1          4.0420   -8.0090    0.0050 S.3       1    LIG40    0.0000
      9 C4          6.5570   -6.7660   -0.0700 C.3       1    LIG40    0.0000
     10 C5          6.6430  -12.2900    0.7490 C.3       1    LIG40    0.0000
     11 C6          7.4710   -6.8760   -1.2180 C.2       1    LIG40    0.0000
     12 N5          8.4640   -7.7790   -1.3310 N.pl3     1    LIG40    0.0000
     13 N6          9.1230   -7.6560   -2.4440 N.2       1    LIG40    0.0000
     14 C7          7.5490  -12.1800   -0.4140 C.2       1    LIG40    0.0000
     15 C8          8.8140  -11.5710   -0.2810 C.2       1    LIG40    0.0000
     16 C9          9.6620  -11.4350   -1.3930 C.2       1    LIG40    0.0000
     17 C10         9.2550  -11.9150   -2.6490 C.2       1    LIG40    0.0000
     18 C11         8.0010  -12.5310   -2.7920 C.2       1    LIG40    0.0000
     19 C12         7.1530  -12.6650   -1.6790 C.2       1    LIG40    0.0000
     20 C13         7.5250   -6.1190   -2.3810 C.2       1    LIG40    0.0000
     21 C14         8.5730   -6.6390   -3.1220 C.2       1    LIG40    0.0000
     22 N7          8.9110   -6.1300   -4.3330 N.am      1    LIG40    0.0000
     23 C15         8.2030   -5.0790   -4.8390 C.2       1    LIG40    0.0000
     24 N8          7.1620   -4.5460   -4.1290 N.am      1    LIG40    0.0000
     25 C16         6.7950   -5.0360   -2.9070 C.2       1    LIG40    0.0000
     26 S2          5.4650   -4.3100   -2.0720 S.2       1    LIG40    0.0000
     27 S3          8.6230   -4.4200   -6.3820 S.2       1    LIG40    0.0000
     28 H1          5.8670   -5.9360   -0.2040 H         1    LIG40    0.0000
     29 H2          7.1430   -6.5880    0.8320 H         1    LIG40    0.0000
     30 H3          7.1570  -11.9950    1.6650 H         1    LIG40    0.0000
     31 H4          6.3160  -13.3250    0.8590 H         1    LIG40    0.0000
     32 H5          8.6590   -8.4510   -0.6580 H         1    LIG40    0.0000
     33 H6          9.1150  -11.2120    0.6260 H         1    LIG40    0.0000
     34 H7         10.5730  -10.9860   -1.2890 H         1    LIG40    0.0000
     35 H8          9.8700  -11.8150   -3.4580 H         1    LIG40    0.0000
     36 H9          7.7040  -12.8790   -3.7040 H         1    LIG40    0.0000
     37 H10         6.2410  -13.1090   -1.7930 H         1    LIG40    0.0000
     38 H11         9.6490   -6.5100   -4.8350 H         1    LIG40    0.0000
     39 H12         6.6690   -3.8000   -4.5050 H         1    LIG40    0.0000
@<TRIPOS>BOND
     1    1    3 2
     2    1    5 1
     3    1   10 1
     4    2    3 1
     5    2    4 2
     6    4    5 1
     7    4    8 1
     8    5    6 1
     9    6    7 2
    10    7    8 1
    11    7    9 1
    12    9   11 1
    13    9   28 1
    14    9   29 1
    15   10   14 1
    16   10   30 1
    17   10   31 1
    18   11   12 1
    19   11   20 2
    20   12   13 1
    21   12   32 1
    22   13   21 2
    23   14   15 2
    24   14   19 1
    25   15   16 1
    26   15   33 1
    27   16   17 2
    28   16   34 1
    29   17   18 1
    30   17   35 1
    31   18   19 2
    32   18   36 1
    33   19   37 1
    34   20   21 1
    35   20   25 1
    36   21   22 1
    37   22   23 1
    38   22   38 1
    39   23   24 1
    40   23   27 2
    41   24   25 1
    42   24   39 1
    43   25   26 2
@<TRIPOS>SUBSTRUCTURE
     1    LIG40    1   GROUP 1   LIG 1
@<TRIPOS>MOLECULE
50455522
   45    48    1     0     0
SMALL
USER_CHARGES


@<TRIPOS>ATOM
      1 C1         -2.5410  -25.5590    0.3590 C.2       1    LIG41    0.0000
      2 C2         -2.1910  -26.7070   -0.3630 C.2       1    LIG41    0.0000
      3 C3         -1.1440  -27.5210    0.0890 C.2       1    LIG41    0.0000
      4 C4         -1.8440  -25.2270    1.5330 C.2       1    LIG41    0.0000
      5 C5         -0.7820  -26.0310    2.0220 C.2       1    LIG41    0.0000
      6 C6         -0.4410  -27.1940    1.2690 C.2       1    LIG41    0.0000
      7 C7          0.6150  -28.0210    1.7230 C.2       1    LIG41    0.0000
      8 N1          1.2850  -27.7090    2.8530 N.am      1    LIG41    0.0000
      9 C8          0.9950  -26.6190    3.6020 C.2       1    LIG41    0.0000
     10 C9         -0.0530  -25.7210    3.2300 C.2       1    LIG41    0.0000
     11 O1          1.7040  -26.4640    4.6220 O.2       1    LIG41    0.0000
     12 O2          0.9650  -29.0530    1.1090 O.2       1    LIG41    0.0000
     13 C10        -0.3450  -24.5950    4.0220 C.2       1    LIG41    0.0000
     14 N2          0.3090  -24.2910    5.1650 N.pl3     1    LIG41    0.0000
     15 C11        -0.0190  -23.1450    5.9370 C.3       1    LIG41    0.0000
     16 C12         0.8540  -23.0620    7.1220 C.2       1    LIG41    0.0000
     17 C13         2.2370  -22.8950    6.9640 C.2       1    LIG41    0.0000
     18 C14         3.0670  -22.8120    8.1000 C.2       1    LIG41    0.0000
     19 N3          2.5170  -22.8960    9.3660 N.am      1    LIG41    0.0000
     20 C15         1.1600  -23.0590    9.5340 C.2       1    LIG41    0.0000
     21 C16         0.3110  -23.1430    8.4250 C.2       1    LIG41    0.0000
     22 O3          4.2970  -22.6630    7.9150 O.2       1    LIG41    0.0000
     23 C17         3.3060  -22.8160   10.4730 C.2       1    LIG41    0.0000
     24 C18         3.6390  -21.5600   11.0200 C.2       1    LIG41    0.0000
     25 C19         4.4540  -21.4780   12.1620 C.2       1    LIG41    0.0000
     26 C20         4.9410  -22.6500   12.7650 C.2       1    LIG41    0.0000
     27 C21         4.6120  -23.9060   12.2260 C.2       1    LIG41    0.0000
     28 C22         3.7980  -23.9890   11.0830 C.2       1    LIG41    0.0000
     29 I1         -4.0740  -24.3650   -0.2990 I         1    LIG41    0.0000
     30 H1         -2.6950  -26.9520   -1.2150 H         1    LIG41    0.0000
     31 H2         -0.8980  -28.3550   -0.4470 H         1    LIG41    0.0000
     32 H3         -2.1320  -24.3830    2.0240 H         1    LIG41    0.0000
     33 H4          2.0030  -28.2910    3.1420 H         1    LIG41    0.0000
     34 H5         -1.0890  -23.9580    3.7430 H         1    LIG41    0.0000
     35 H6          1.0230  -24.8730    5.4710 H         1    LIG41    0.0000
     36 H7          0.1130  -22.2440    5.3340 H         1    LIG41    0.0000
     37 H8         -1.0680  -23.2080    6.2390 H         1    LIG41    0.0000
     38 H9          2.6420  -22.8330    6.0290 H         1    LIG41    0.0000
     39 H10         0.7530  -23.1200   10.4700 H         1    LIG41    0.0000
     40 H11        -0.6930  -23.2650    8.5610 H         1    LIG41    0.0000
     41 H12         3.2900  -20.7050   10.5860 H         1    LIG41    0.0000
     42 H13         4.6940  -20.5660   12.5540 H         1    LIG41    0.0000
     43 H14         5.5330  -22.5900   13.5930 H         1    LIG41    0.0000
     44 H15         4.9660  -24.7570   12.6630 H         1    LIG41    0.0000
     45 H16         3.5640  -24.9030   10.6940 H         1    LIG41    0.0000
@<TRIPOS>BOND
     1    1    2 2
     2    1    4 1
     3    1   29 1
     4    2    3 1
     5    2   30 1
     6    3    6 2
     7    3   31 1
     8    4    5 2
     9    4   32 1
    10    5    6 1
    11    5   10 1
    12    6    7 1
    13    7    8 1
    14    7   12 2
    15    8    9 1
    16    8   33 1
    17    9   10 1
    18    9   11 2
    19   10   13 2
    20   13   14 1
    21   13   34 1
    22   14   15 1
    23   14   35 1
    24   15   16 1
    25   15   36 1
    26   15   37 1
    27   16   17 2
    28   16   21 1
    29   17   18 1
    30   17   38 1
    31   18   19 1
    32   18   22 2
    33   19   20 1
    34   19   23 1
    35   20   21 2
    36   20   39 1
    37   21   40 1
    38   23   24 2
    39   23   28 1
    40   24   25 1
    41   24   41 1
    42   25   26 2
    43   25   42 1
    44   26   27 1
    45   26   43 1
    46   27   28 2
    47   27   44 1
    48   28   45 1
@<TRIPOS>SUBSTRUCTURE
     1    LIG41    1   GROUP 1   LIG 1
@<TRIPOS>MOLECULE
51059572
   25    27    1     0     0
SMALL
USER_CHARGES


@<TRIPOS>ATOM
      1 C1         26.5260  -12.2350    0.4390 C.2       1    LIG42    0.0000
      2 N1         27.8300  -11.8540    0.3680 N.2       1    LIG42    0.0000
      3 C2         28.2750  -10.6240    0.7440 C.2       1    LIG42    0.0000
      4 C3         27.3670   -9.6720    1.2360 C.2       1    LIG42    0.0000
      5 C4         25.5710  -11.3200    0.9260 C.2       1    LIG42    0.0000
      6 C5         26.0210  -10.0560    1.3130 C.2       1    LIG42    0.0000
      7 C6         24.9190   -9.3460    1.7480 C.2       1    LIG42    0.0000
      8 C7         23.8350  -10.2020    1.6110 C.2       1    LIG42    0.0000
      9 N2         24.2260  -11.4030    1.1110 N.pl3     1    LIG42    0.0000
     10 C8         23.3980  -12.4780    0.8520 C.2       1    LIG42    0.0000
     11 C9         22.0040  -12.4460    1.0840 C.2       1    LIG42    0.0000
     12 C10        21.2440  -13.5860    0.7880 C.2       1    LIG42    0.0000
     13 N3         21.8420  -14.6930    0.2910 N.2       1    LIG42    0.0000
     14 C11        23.1740  -14.7240    0.0710 C.2       1    LIG42    0.0000
     15 N4         23.9180  -13.6300    0.3510 N.2       1    LIG42    0.0000
     16 N5         23.7510  -15.8240   -0.4200 N.pl3     1    LIG42    0.0000
     17 H1         26.2630  -13.1720    0.1400 H         1    LIG42    0.0000
     18 H2         29.2660  -10.3950    0.6680 H         1    LIG42    0.0000
     19 H3         27.6770   -8.7430    1.5240 H         1    LIG42    0.0000
     20 H4         24.9030   -8.3880    2.0990 H         1    LIG42    0.0000
     21 H5         22.8800   -9.9410    1.8590 H         1    LIG42    0.0000
     22 H6         21.5420  -11.6190    1.4580 H         1    LIG42    0.0000
     23 H7         20.2360  -13.5820    0.9480 H         1    LIG42    0.0000
     24 H8         24.7070  -15.8390   -0.5760 H         1    LIG42    0.0000
     25 H9         23.2110  -16.6040   -0.6190 H         1    LIG42    0.0000
@<TRIPOS>BOND
     1    1    2 1
     2    1    5 2
     3    1   17 1
     4    2    3 2
     5    3    4 1
     6    3   18 1
     7    4    6 2
     8    4   19 1
     9    5    6 1
    10    5    9 1
    11    6    7 1
    12    7    8 2
    13    7   20 1
    14    8    9 1
    15    8   21 1
    16    9   10 1
    17   10   11 2
    18   10   15 1
    19   11   12 1
    20   11   22 1
    21   12   13 2
    22   12   23 1
    23   13   14 1
    24   14   15 2
    25   14   16 1
    26   16   24 1
    27   16   25 1
@<TRIPOS>SUBSTRUCTURE
     1    LIG42    1   GROUP 1   LIG 1
@<TRIPOS>MOLECULE
50414634
   32    33    1     0     0
SMALL
USER_CHARGES


@<TRIPOS>ATOM
      1 C1          2.1940    0.6380   -0.0120 C.2       1    LIG43    0.0000
      2 C2          2.0790    1.6480    0.9680 C.2       1    LIG43    0.0000
      3 C3          0.8930    1.8120    1.7000 C.2       1    LIG43    0.0000
      4 C4         -0.2010    0.9670    1.4630 C.2       1    LIG43    0.0000
      5 C5         -0.1230   -0.0510    0.4910 C.2       1    LIG43    0.0000
      6 C6          1.0800   -0.2040   -0.2360 C.2       1    LIG43    0.0000
      7 N1          3.3520    0.4790   -0.7250 N.pl3     1    LIG43    0.0000
      8 O1          3.4610   -0.3570   -1.5830 O.2       1    LIG43    0.0000
      9 O2          4.3200    1.1700   -0.5290 O.3       1    LIG43    0.0000
     10 O3         -1.3330    1.1470    2.1830 O.3       1    LIG43    0.0000
     11 N2         -1.2000   -0.8100    0.3290 N.2       1    LIG43    0.0000
     12 C7         -1.4390   -1.7810   -0.5240 C.2       1    LIG43    0.0000
     13 C8         -2.6670   -2.4760   -0.5270 C.2       1    LIG43    0.0000
     14 C9         -2.8800   -3.5100   -1.4640 C.2       1    LIG43    0.0000
     15 C10        -4.0940   -4.2180   -1.4850 C.2       1    LIG43    0.0000
     16 C11        -5.1160   -3.9060   -0.5730 C.2       1    LIG43    0.0000
     17 C12        -4.9130   -2.8760    0.3640 C.2       1    LIG43    0.0000
     18 C13        -3.7000   -2.1680    0.3870 C.2       1    LIG43    0.0000
     19 S1         -6.5930   -4.8180   -0.6470 S.3       1    LIG43    0.0000
     20 C14        -7.7130   -4.2100    0.6280 C.3       1    LIG43    0.0000
     21 H1          2.8670    2.2710    1.1520 H         1    LIG43    0.0000
     22 H2          0.8280    2.5470    2.4050 H         1    LIG43    0.0000
     23 H3          1.1540   -0.9380   -0.9400 H         1    LIG43    0.0000
     24 H4         -2.0500    0.5180    1.9570 H         1    LIG43    0.0000
     25 H5         -0.7240   -2.0440   -1.2060 H         1    LIG43    0.0000
     26 H6         -2.1530   -3.7560   -2.1380 H         1    LIG43    0.0000
     27 H7         -4.2330   -4.9640   -2.1670 H         1    LIG43    0.0000
     28 H8         -5.6440   -2.6370    1.0330 H         1    LIG43    0.0000
     29 H9         -3.5760   -1.4250    1.0770 H         1    LIG43    0.0000
     30 H10        -8.6430   -4.7770    0.5890 H         1    LIG43    0.0000
     31 H11        -7.2560   -4.3360    1.6100 H         1    LIG43    0.0000
     32 H12        -7.9290   -3.1550    0.4560 H         1    LIG43    0.0000
@<TRIPOS>BOND
     1    1    2 2
     2    1    6 1
     3    1    7 1
     4    2    3 1
     5    2   21 1
     6    3    4 2
     7    3   22 1
     8    4    5 1
     9    4   10 1
    10    5    6 2
    11    5   11 1
    12    6   23 1
    13    7    8 2
    14    7    9 1
    15   10   24 1
    16   11   12 2
    17   12   13 1
    18   12   25 1
    19   13   14 2
    20   13   18 1
    21   14   15 1
    22   14   26 1
    23   15   16 2
    24   15   27 1
    25   16   17 1
    26   16   19 1
    27   17   18 2
    28   17   28 1
    29   18   29 1
    30   19   20 1
    31   20   30 1
    32   20   31 1
    33   20   32 1
@<TRIPOS>SUBSTRUCTURE
     1    LIG43    1   GROUP 1   LIG 1
@<TRIPOS>MOLECULE
907159
   69    73    1     0     0
SMALL
USER_CHARGES


@<TRIPOS>ATOM
      1 N1         -2.3460    1.0380    0.7420 N.2       1    LIG44    0.0000
      2 C1         -2.3440   -0.3110    0.8710 C.2       1    LIG44    0.0000
      3 C2         -1.1620   -1.0290    0.5990 C.2       1    LIG44    0.0000
      4 C3         -0.0080   -0.3040    0.2480 C.2       1    LIG44    0.0000
      5 C4         -0.0500    1.0950    0.1400 C.2       1    LIG44    0.0000
      6 C5         -1.2580    1.7690    0.3850 C.2       1    LIG44    0.0000
      7 C6         -3.5800   -0.9890    1.2870 C.3       1    LIG44    0.0000
      8 C7         -3.3560   -2.4660    1.6610 C.3       1    LIG44    0.0000
      9 N2         -2.4870   -3.1090    0.6570 N.3       1    LIG44    0.0000
     10 C8         -1.1330   -2.5010    0.6860 C.3       1    LIG44    0.0000
     11 N3         -1.2900    3.1200    0.2590 N.pl3     1    LIG44    0.0000
     12 C9         -2.3710    3.9150    0.4370 C.2       1    LIG44    0.0000
     13 N4         -3.5990    3.4490    0.7650 N.2       1    LIG44    0.0000
     14 C10        -4.7110    4.2120    0.9450 C.2       1    LIG44    0.0000
     15 C11        -4.5440    5.6120    0.7700 C.2       1    LIG44    0.0000
     16 C12        -3.2700    6.0940    0.4300 C.2       1    LIG44    0.0000
     17 N5         -2.2270    5.2470    0.2720 N.2       1    LIG44    0.0000
     18 F1         -5.4890    6.5020    0.8970 F         1    LIG44    0.0000
     19 C13        -5.9220    3.5150    1.2900 C.2       1    LIG44    0.0000
     20 C14        -5.8960    2.0950    1.4100 C.2       1    LIG44    0.0000
     21 C15        -7.0390    1.3440    1.7440 C.2       1    LIG44    0.0000
     22 C16        -8.2400    2.0320    1.9630 C.2       1    LIG44    0.0000
     23 C17        -8.3130    3.4140    1.8560 C.2       1    LIG44    0.0000
     24 C18        -7.1670    4.1590    1.5220 C.2       1    LIG44    0.0000
     25 F2         -6.9740    0.0460    1.8450 F         1    LIG44    0.0000
     26 N6         -9.4470    1.5580    2.2880 N.2       1    LIG44    0.0000
     27 C19       -10.2570    2.6280    2.3810 C.2       1    LIG44    0.0000
     28 N7         -9.5850    3.7790    2.1200 N.pl3     1    LIG44    0.0000
     29 C20       -11.6730    2.4520    2.7280 C.3       1    LIG44    0.0000
     30 C21       -10.1250    5.1120    2.1250 C.3       1    LIG44    0.0000
     31 C22        -2.4300   -4.5670    0.8900 C.3       1    LIG44    0.0000
     32 C23        -1.7830   -5.3350   -0.2770 C.3       1    LIG44    0.0000
     33 C24        -2.5250   -5.1060   -1.6060 C.3       1    LIG44    0.0000
     34 N8         -2.2920   -3.7480   -2.1090 N.3       1    LIG44    0.0000
     35 O1         -3.0500   -3.5600   -3.2170 O.3       1    LIG44    0.0000
     36 N9         -2.0300   -6.0590   -2.5980 N.3       1    LIG44    0.0000
     37 C25        -9.4650    6.0000    3.1950 C.3       1    LIG44    0.0000
     38 C26       -10.0490    5.7690    0.7360 C.3       1    LIG44    0.0000
     39 H1          0.8650   -0.7980    0.0590 H         1    LIG44    0.0000
     40 H2          0.7890    1.6130   -0.1230 H         1    LIG44    0.0000
     41 H3         -3.9920   -0.4760    2.1560 H         1    LIG44    0.0000
     42 H4         -4.3010   -0.9290    0.4720 H         1    LIG44    0.0000
     43 H5         -4.3270   -2.9620    1.6930 H         1    LIG44    0.0000
     44 H6         -2.8940   -2.5290    2.6490 H         1    LIG44    0.0000
     45 H7         -0.5690   -2.8820   -0.1650 H         1    LIG44    0.0000
     46 H8         -0.6140   -2.7860    1.6030 H         1    LIG44    0.0000
     47 H9         -0.4630    3.5610    0.0130 H         1    LIG44    0.0000
     48 H10        -3.1200    7.0950    0.2960 H         1    LIG44    0.0000
     49 H11        -5.0270    1.5840    1.2510 H         1    LIG44    0.0000
     50 H12        -7.2600    5.1640    1.4530 H         1    LIG44    0.0000
     51 H13       -12.2100    3.3950    2.7650 H         1    LIG44    0.0000
     52 H14       -12.1420    1.8100    1.9820 H         1    LIG44    0.0000
     53 H15       -11.7410    1.9710    3.7030 H         1    LIG44    0.0000
     54 H16       -11.1820    5.0840    2.3790 H         1    LIG44    0.0000
     55 H17        -1.8730   -4.7750    1.8050 H         1    LIG44    0.0000
     56 H18        -3.4440   -4.9500    1.0130 H         1    LIG44    0.0000
     57 H19        -0.7380   -5.0460   -0.3850 H         1    LIG44    0.0000
     58 H20        -1.8210   -6.3980   -0.0390 H         1    LIG44    0.0000
     59 H21        -3.5940   -5.2670   -1.4570 H         1    LIG44    0.0000
     60 H22        -2.6430   -3.1050   -1.3940 H         1    LIG44    0.0000
     61 H23        -2.9830   -2.6630   -3.6090 H         1    LIG44    0.0000
     62 H24        -2.5130   -5.8290   -3.4690 H         1    LIG44    0.0000
     63 H25        -1.0450   -5.8350   -2.7460 H         1    LIG44    0.0000
     64 H26       -10.0070    6.9440    3.2640 H         1    LIG44    0.0000
     65 H27        -9.5070    5.4970    4.1610 H         1    LIG44    0.0000
     66 H28        -8.4280    6.2100    2.9450 H         1    LIG44    0.0000
     67 H29       -10.5930    6.7140    0.7530 H         1    LIG44    0.0000
     68 H30        -9.0170    5.9650    0.4520 H         1    LIG44    0.0000
     69 H31       -10.5050    5.1100   -0.0030 H         1    LIG44    0.0000
@<TRIPOS>BOND
     1    1    2 2
     2    1    6 1
     3    2    3 1
     4    2    7 1
     5    3    4 2
     6    3   10 1
     7    4    5 1
     8    4   39 1
     9    5    6 2
    10    5   40 1
    11    6   11 1
    12    7    8 1
    13    7   41 1
    14    7   42 1
    15    8    9 1
    16    8   43 1
    17    8   44 1
    18    9   10 1
    19    9   31 1
    20   10   45 1
    21   10   46 1
    22   11   12 1
    23   11   47 1
    24   12   13 2
    25   12   17 1
    26   13   14 1
    27   14   15 2
    28   14   19 1
    29   15   16 1
    30   15   18 1
    31   16   17 2
    32   16   48 1
    33   19   20 2
    34   19   24 1
    35   20   21 1
    36   20   49 1
    37   21   22 2
    38   21   25 1
    39   22   23 1
    40   22   26 1
    41   23   24 2
    42   23   28 1
    43   24   50 1
    44   26   27 2
    45   27   28 1
    46   27   29 1
    47   28   30 1
    48   29   51 1
    49   29   52 1
    50   29   53 1
    51   30   37 1
    52   30   38 1
    53   30   54 1
    54   31   32 1
    55   31   55 1
    56   31   56 1
    57   32   33 1
    58   32   57 1
    59   32   58 1
    60   33   34 1
    61   33   36 1
    62   33   59 1
    63   34   35 1
    64   34   60 1
    65   35   61 1
    66   36   62 1
    67   36   63 1
    68   37   64 1
    69   37   65 1
    70   37   66 1
    71   38   67 1
    72   38   68 1
    73   38   69 1
@<TRIPOS>SUBSTRUCTURE
     1    LIG44    1   GROUP 1   LIG 1
@<TRIPOS>MOLECULE
907081
   77    82    1     0     0
SMALL
USER_CHARGES


@<TRIPOS>ATOM
      1 N1         -2.0810    1.7650    0.7740 N.2       1    LIG45    0.0000
      2 C1         -2.1110    0.4490    1.0980 C.2       1    LIG45    0.0000
      3 C2         -0.9960   -0.3610    0.8080 C.2       1    LIG45    0.0000
      4 C3          0.1340    0.2440    0.2280 C.2       1    LIG45    0.0000
      5 C4          0.1300    1.6130   -0.0820 C.2       1    LIG45    0.0000
      6 C5         -1.0160    2.3790    0.1940 C.2       1    LIG45    0.0000
      7 C6         -3.3150   -0.0980    1.7410 C.3       1    LIG45    0.0000
      8 C7         -3.0980   -1.5120    2.3090 C.3       1    LIG45    0.0000
      9 N2         -2.3730   -2.3450    1.3290 N.3       1    LIG45    0.0000
     10 C8         -1.0090   -1.8060    1.1090 C.3       1    LIG45    0.0000
     11 N3         -1.0110    3.6960   -0.1290 N.pl3     1    LIG45    0.0000
     12 C9         -2.0290    4.5700    0.0480 C.2       1    LIG45    0.0000
     13 N4         -3.2240    4.2340    0.5870 N.2       1    LIG45    0.0000
     14 C10        -4.2710    5.0830    0.7770 C.2       1    LIG45    0.0000
     15 C11        -4.0670    6.4280    0.3680 C.2       1    LIG45    0.0000
     16 C12        -2.8260    6.7740   -0.1930 C.2       1    LIG45    0.0000
     17 N5         -1.8500    5.8510   -0.3380 N.2       1    LIG45    0.0000
     18 F1         -4.9440    7.3870    0.4670 F         1    LIG45    0.0000
     19 C13        -5.4590    4.5210    1.3680 C.2       1    LIG45    0.0000
     20 C14        -5.4740    3.1420    1.7110 C.2       1    LIG45    0.0000
     21 C15        -6.5950    2.5270    2.2950 C.2       1    LIG45    0.0000
     22 C16        -7.7260    3.3150    2.5390 C.2       1    LIG45    0.0000
     23 C17        -7.7800    4.6700    2.2250 C.2       1    LIG45    0.0000
     24 C18        -6.6400    5.2650    1.6380 C.2       1    LIG45    0.0000
     25 F2         -6.5730    1.2590    2.5990 F         1    LIG45    0.0000
     26 N6         -8.8840    2.9460    3.0810 N.2       1    LIG45    0.0000
     27 C19        -9.6520    4.0450    3.1070 C.2       1    LIG45    0.0000
     28 N7         -9.0100    5.1330    2.5850 N.pl3     1    LIG45    0.0000
     29 C20       -11.0030    3.9030    3.6700 C.3       1    LIG45    0.0000
     30 C21        -9.5750    6.4710    2.4660 C.3       1    LIG45    0.0000
     31 C22        -2.3330   -3.7480    1.7980 C.3       1    LIG45    0.0000
     32 C23        -1.7770   -4.7110    0.7360 C.3       1    LIG45    0.0000
     33 O1         -1.9130   -6.0500    1.2110 O.3       1    LIG45    0.0000
     34 C24        -1.4830   -7.0700    0.3130 C.3       1    LIG45    0.0000
     35 C25        -2.2380   -6.9310   -1.0170 C.3       1    LIG45    0.0000
     36 C26        -9.9080    7.0480    3.8630 C.3       1    LIG45    0.0000
     37 C27        -8.6670    7.5500    1.8320 C.3       1    LIG45    0.0000
     38 C28        -2.5380   -4.5710   -0.5950 C.3       1    LIG45    0.0000
     39 N8         -2.0430   -5.5730   -1.5600 N.3       1    LIG45    0.0000
     40 C29        -2.7620   -5.4350   -2.8380 C.3       1    LIG45    0.0000
     41 C30       -10.8200    6.4560    1.5460 C.3       1    LIG45    0.0000
     42 H1          0.9600   -0.3170    0.0190 H         1    LIG45    0.0000
     43 H2          0.9500    2.0430   -0.5110 H         1    LIG45    0.0000
     44 H3         -3.6100    0.5580    2.5610 H         1    LIG45    0.0000
     45 H4         -4.1200   -0.1240    1.0060 H         1    LIG45    0.0000
     46 H5         -4.0750   -1.9480    2.5250 H         1    LIG45    0.0000
     47 H6         -2.5280   -1.4490    3.2390 H         1    LIG45    0.0000
     48 H7         -0.5700   -2.3330    0.2610 H         1    LIG45    0.0000
     49 H8         -0.3880   -1.9840    1.9890 H         1    LIG45    0.0000
     50 H9         -0.2030    4.0490   -0.5320 H         1    LIG45    0.0000
     51 H10        -2.6520    7.7330   -0.4980 H         1    LIG45    0.0000
     52 H11        -4.6540    2.5590    1.5370 H         1    LIG45    0.0000
     53 H12        -6.6690    6.2430    1.4080 H         1    LIG45    0.0000
     54 H13       -11.5700    4.8250    3.6740 H         1    LIG45    0.0000
     55 H14       -11.5510    3.1640    3.0850 H         1    LIG45    0.0000
     56 H15       -10.9200    3.5460    4.6960 H         1    LIG45    0.0000
     57 H16        -1.7240   -3.8230    2.7000 H         1    LIG45    0.0000
     58 H17        -3.3470   -4.0700    2.0390 H         1    LIG45    0.0000
     59 H18        -0.7200   -4.5030    0.5710 H         1    LIG45    0.0000
     60 H19        -0.4110   -6.9740    0.1350 H         1    LIG45    0.0000
     61 H20        -1.6880   -8.0470    0.7490 H         1    LIG45    0.0000
     62 H21        -1.8510   -7.6690   -1.7210 H         1    LIG45    0.0000
     63 H22        -3.2990   -7.1220   -0.8470 H         1    LIG45    0.0000
     64 H23       -10.3500    8.0400    3.7600 H         1    LIG45    0.0000
     65 H24       -10.6020    6.4240    4.4140 H         1    LIG45    0.0000
     66 H25        -8.9890    7.1330    4.4450 H         1    LIG45    0.0000
     67 H26        -9.1970    8.5030    1.7900 H         1    LIG45    0.0000
     68 H27        -7.7710    7.6940    2.4360 H         1    LIG45    0.0000
     69 H28        -8.4010    7.2710    0.8120 H         1    LIG45    0.0000
     70 H29        -2.3750   -3.5700   -0.9960 H         1    LIG45    0.0000
     71 H30        -3.6060   -4.7150   -0.4170 H         1    LIG45    0.0000
     72 H31        -2.6030   -4.4350   -3.2430 H         1    LIG45    0.0000
     73 H32        -2.3820   -6.1650   -3.5540 H         1    LIG45    0.0000
     74 H33        -3.8320   -5.5980   -2.6950 H         1    LIG45    0.0000
     75 H34       -11.2340    7.4620    1.4630 H         1    LIG45    0.0000
     76 H35       -10.5280    6.1130    0.5520 H         1    LIG45    0.0000
     77 H36       -11.6000    5.8010    1.9170 H         1    LIG45    0.0000
@<TRIPOS>BOND
     1    1    2 2
     2    1    6 1
     3    2    3 1
     4    2    7 1
     5    3    4 2
     6    3   10 1
     7    4    5 1
     8    4   42 1
     9    5    6 2
    10    5   43 1
    11    6   11 1
    12    7    8 1
    13    7   44 1
    14    7   45 1
    15    8    9 1
    16    8   46 1
    17    8   47 1
    18    9   10 1
    19    9   31 1
    20   10   48 1
    21   10   49 1
    22   11   12 1
    23   11   50 1
    24   12   13 2
    25   12   17 1
    26   13   14 1
    27   14   15 2
    28   14   19 1
    29   15   16 1
    30   15   18 1
    31   16   17 2
    32   16   51 1
    33   19   20 2
    34   19   24 1
    35   20   21 1
    36   20   52 1
    37   21   22 2
    38   21   25 1
    39   22   23 1
    40   22   26 1
    41   23   24 2
    42   23   28 1
    43   24   53 1
    44   26   27 2
    45   27   28 1
    46   27   29 1
    47   28   30 1
    48   29   54 1
    49   29   55 1
    50   29   56 1
    51   30   36 1
    52   30   37 1
    53   30   41 1
    54   32   31 1
    55   31   57 1
    56   31   58 1
    57   32   33 1
    58   32   38 1
    59   32   59 1
    60   33   34 1
    61   34   35 1
    62   34   60 1
    63   34   61 1
    64   35   39 1
    65   35   62 1
    66   35   63 1
    67   36   64 1
    68   36   65 1
    69   36   66 1
    70   37   67 1
    71   37   68 1
    72   37   69 1
    73   38   39 1
    74   38   70 1
    75   38   71 1
    76   39   40 1
    77   40   72 1
    78   40   73 1
    79   40   74 1
    80   41   75 1
    81   41   76 1
    82   41   77 1
@<TRIPOS>SUBSTRUCTURE
     1    LIG45    1   GROUP 1   LIG 1
@<TRIPOS>MOLECULE
50861375
   51    54    1     0     0
SMALL
USER_CHARGES


@<TRIPOS>ATOM
      1 C1         -2.0020    3.3160    0.3430 C.2       1    LIG46    0.0000
      2 C2         -1.9110    2.3400    1.3630 C.2       1    LIG46    0.0000
      3 C3         -2.2430    0.9920    1.1160 C.2       1    LIG46    0.0000
      4 C4         -2.6740    0.5850   -0.1610 C.2       1    LIG46    0.0000
      5 C5         -2.4540    2.8910   -0.9270 C.2       1    LIG46    0.0000
      6 C6         -2.6800    3.5790   -2.1210 C.2       1    LIG46    0.0000
      7 C7         -2.7710    1.5540   -1.1700 C.2       1    LIG46    0.0000
      8 N1         -3.1520    1.4140   -2.4470 N.am      1    LIG46    0.0000
      9 C8         -3.1040    2.6160   -3.0470 C.2       1    LIG46    0.0000
     10 O1         -3.4110    2.8250   -4.2420 O.2       1    LIG46    0.0000
     11 N2         -2.7440    5.4670   -3.4000 N.pl3     1    LIG46    0.0000
     12 C9         -2.6370    6.8100   -3.5430 C.2       1    LIG46    0.0000
     13 C10        -2.3970    9.5980   -3.9580 C.2       1    LIG46    0.0000
     14 C11        -2.6930    8.7430   -5.0350 C.2       1    LIG46    0.0000
     15 C12        -2.8140    7.3580   -4.8280 C.2       1    LIG46    0.0000
     16 C13        -2.3580    7.6740   -2.4630 C.2       1    LIG46    0.0000
     17 C14        -2.2360    9.0580   -2.6690 C.2       1    LIG46    0.0000
     18 O2         -1.1820   11.8660   -3.1510 O.2       1    LIG46    0.0000
     19 S1         -2.2360   11.3100   -4.2040 S.o2      1    LIG46    0.0000
     20 O3         -2.2640   11.6390   -5.7600 O.2       1    LIG46    0.0000
     21 N3         -3.6900   11.9260   -3.6420 N.pl3     1    LIG46    0.0000
     22 N4         -2.5440    4.8710   -2.3010 N.2       1    LIG46    0.0000
     23 C15        -1.5920    4.7100    0.6140 C.3       1    LIG46    0.0000
     24 C16        -0.1680    4.9800    0.0750 C.3       1    LIG46    0.0000
     25 C17         0.2380    6.3930    0.2250 C.2       1    LIG46    0.0000
     26 C18         0.3090    6.9860    1.5020 C.2       1    LIG46    0.0000
     27 C19         0.6840    8.3340    1.6430 C.2       1    LIG46    0.0000
     28 C20         0.9470    8.5130   -0.7680 C.2       1    LIG46    0.0000
     29 C21         0.5750    7.1650   -0.9060 C.2       1    LIG46    0.0000
     30 C22         0.9980    9.1000    0.5080 C.2       1    LIG46    0.0000
     31 O4          1.3440   10.3980    0.6480 O.3       1    LIG46    0.0000
     32 H1         -1.5880    2.6100    2.2930 H         1    LIG46    0.0000
     33 H2         -2.1650    0.3050    1.8660 H         1    LIG46    0.0000
     34 H3         -2.9100   -0.3900   -0.3470 H         1    LIG46    0.0000
     35 H4         -3.4230    0.5860   -2.8700 H         1    LIG46    0.0000
     36 H5         -2.9810    4.9370   -4.1790 H         1    LIG46    0.0000
     37 H6         -2.8160    9.1280   -5.9720 H         1    LIG46    0.0000
     38 H7         -3.0240    6.7480   -5.6190 H         1    LIG46    0.0000
     39 H8         -2.2410    7.2970   -1.5220 H         1    LIG46    0.0000
     40 H9         -2.0280    9.6720   -1.8820 H         1    LIG46    0.0000
     41 H10        -4.4350   12.0330   -4.2510 H         1    LIG46    0.0000
     42 H11        -3.7750   12.1840   -2.7120 H         1    LIG46    0.0000
     43 H12        -2.3060    5.3990    0.1580 H         1    LIG46    0.0000
     44 H13        -1.6000    4.8910    1.6910 H         1    LIG46    0.0000
     45 H14         0.5420    4.3550    0.6200 H         1    LIG46    0.0000
     46 H15        -0.1270    4.6950   -0.9790 H         1    LIG46    0.0000
     47 H16         0.0830    6.4390    2.3330 H         1    LIG46    0.0000
     48 H17         0.7260    8.7560    2.5710 H         1    LIG46    0.0000
     49 H18         1.1760    9.0640   -1.5950 H         1    LIG46    0.0000
     50 H19         0.5380    6.7490   -1.8380 H         1    LIG46    0.0000
     51 H20         1.5240   10.8670   -0.1940 H         1    LIG46    0.0000
@<TRIPOS>BOND
     1    1    2 2
     2    1    5 1
     3    1   23 1
     4    2    3 1
     5    2   32 1
     6    3    4 2
     7    3   33 1
     8    4    7 1
     9    4   34 1
    10    5    6 1
    11    5    7 2
    12    6    9 1
    13    6   22 2
    14    7    8 1
    15    8    9 1
    16    8   35 1
    17    9   10 2
    18   11   12 1
    19   11   22 1
    20   11   36 1
    21   12   15 2
    22   12   16 1
    23   13   14 2
    24   13   17 1
    25   13   19 1
    26   14   15 1
    27   14   37 1
    28   15   38 1
    29   16   17 2
    30   16   39 1
    31   17   40 1
    32   18   19 2
    33   19   20 2
    34   19   21 1
    35   21   41 1
    36   21   42 1
    37   23   24 1
    38   23   43 1
    39   23   44 1
    40   24   25 1
    41   24   45 1
    42   24   46 1
    43   25   26 1
    44   25   29 2
    45   26   27 2
    46   26   47 1
    47   27   30 1
    48   27   48 1
    49   28   29 1
    50   28   30 2
    51   28   49 1
    52   29   50 1
    53   30   31 1
    54   31   51 1
@<TRIPOS>SUBSTRUCTURE
     1    LIG46    1   GROUP 1   LIG 1
@<TRIPOS>MOLECULE
260743
   48    49    1     0     0
SMALL
USER_CHARGES


@<TRIPOS>ATOM
      1 C1         -0.0910    1.9820    1.6470 C.2       1    LIG47    0.0000
      2 C2         -0.3810    1.3200    0.4300 C.2       1    LIG47    0.0000
      3 C3          0.6890    0.7520   -0.2910 C.2       1    LIG47    0.0000
      4 C4          2.0090    0.8360    0.1820 C.2       1    LIG47    0.0000
      5 C5          2.2840    1.4920    1.3940 C.2       1    LIG47    0.0000
      6 C6          1.2290    2.0670    2.1220 C.2       1    LIG47    0.0000
      7 S1          3.9160    1.6060    1.9780 S.o2      1    LIG47    0.0000
      8 C7          4.5680    3.0950    1.2050 C.3       1    LIG47    0.0000
      9 O1          3.9030    1.9550    3.5290 O.2       1    LIG47    0.0000
     10 O2          4.7840    0.4380    1.3350 O.2       1    LIG47    0.0000
     11 N1         -1.6150    1.1710   -0.1330 N.pl3     1    LIG47    0.0000
     12 C8         -2.8280    1.5850    0.3090 C.2       1    LIG47    0.0000
     13 N2         -3.9000    1.2970   -0.4620 N.2       1    LIG47    0.0000
     14 C9         -5.1560    1.6600   -0.1130 C.2       1    LIG47    0.0000
     15 C10        -5.4050    2.3590    1.0840 C.2       1    LIG47    0.0000
     16 C11        -4.2730    2.6470    1.8760 C.2       1    LIG47    0.0000
     17 N3         -3.0430    2.2570    1.4630 N.2       1    LIG47    0.0000
     18 C12        -6.7980    2.7410    1.4310 C.3       1    LIG47    0.0000
     19 F1         -6.9470    3.4050    2.6240 F         1    LIG47    0.0000
     20 F2         -7.3100    3.5620    0.4550 F         1    LIG47    0.0000
     21 F3         -7.5850    1.6170    1.5060 F         1    LIG47    0.0000
     22 O3         -4.4010    3.3250    3.0480 O.3       1    LIG47    0.0000
     23 C13        -3.2850    3.5710    3.9130 C.3       1    LIG47    0.0000
     24 C14        -3.6740    4.6710    4.9280 C.3       1    LIG47    0.0000
     25 O4         -2.5650    4.9440    5.7760 O.3       1    LIG47    0.0000
     26 C15        -2.8530    2.2710    4.6180 C.3       1    LIG47    0.0000
     27 C16        -4.0220    5.9670    4.1770 C.3       1    LIG47    0.0000
     28 C17        -4.8700    4.2550    5.8020 C.3       1    LIG47    0.0000
     29 H1         -0.8260    2.4110    2.2020 H         1    LIG47    0.0000
     30 H2          0.5090    0.2690   -1.1730 H         1    LIG47    0.0000
     31 H3          2.7700    0.4200   -0.3550 H         1    LIG47    0.0000
     32 H4          1.4200    2.5490    3.0010 H         1    LIG47    0.0000
     33 H5          5.6020    3.2380    1.5180 H         1    LIG47    0.0000
     34 H6          4.5280    2.9900    0.1210 H         1    LIG47    0.0000
     35 H7          3.9730    3.9550    1.5110 H         1    LIG47    0.0000
     36 H8         -1.6340    0.6950   -0.9780 H         1    LIG47    0.0000
     37 H9         -5.9310    1.4200   -0.7310 H         1    LIG47    0.0000
     38 H10        -2.4400    3.9450    3.3300 H         1    LIG47    0.0000
     39 H11        -2.7270    5.6460    6.4400 H         1    LIG47    0.0000
     40 H12        -2.0830    2.4910    5.3580 H         1    LIG47    0.0000
     41 H13        -3.7090    1.8120    5.1110 H         1    LIG47    0.0000
     42 H14        -2.4480    1.5710    3.8880 H         1    LIG47    0.0000
     43 H15        -4.2510    6.7590    4.8910 H         1    LIG47    0.0000
     44 H16        -3.1750    6.2740    3.5630 H         1    LIG47    0.0000
     45 H17        -4.8890    5.8030    3.5350 H         1    LIG47    0.0000
     46 H18        -5.1590    5.0840    6.4490 H         1    LIG47    0.0000
     47 H19        -5.7160    3.9850    5.1700 H         1    LIG47    0.0000
     48 H20        -4.6000    3.4030    6.4250 H         1    LIG47    0.0000
@<TRIPOS>BOND
     1    1    2 2
     2    1    6 1
     3    1   29 1
     4    2    3 1
     5    2   11 1
     6    3    4 2
     7    3   30 1
     8    4    5 1
     9    4   31 1
    10    5    6 2
    11    5    7 1
    12    6   32 1
    13    7    8 1
    14    7    9 2
    15    7   10 2
    16    8   33 1
    17    8   34 1
    18    8   35 1
    19   11   12 1
    20   11   36 1
    21   12   13 2
    22   12   17 1
    23   13   14 1
    24   14   15 2
    25   14   37 1
    26   15   16 1
    27   15   18 1
    28   16   17 2
    29   16   22 1
    30   18   19 1
    31   18   20 1
    32   18   21 1
    33   22   23 1
    34   23   24 1
    35   23   26 1
    36   23   38 1
    37   24   25 1
    38   24   27 1
    39   24   28 1
    40   25   39 1
    41   26   40 1
    42   26   41 1
    43   26   42 1
    44   27   43 1
    45   27   44 1
    46   27   45 1
    47   28   46 1
    48   28   47 1
    49   28   48 1
@<TRIPOS>SUBSTRUCTURE
     1    LIG47    1   GROUP 1   LIG 1
@<TRIPOS>MOLECULE
1028687
   61    65    1     0     0
SMALL
USER_CHARGES


@<TRIPOS>ATOM
      1 N1         18.1880   -6.5050   -0.1350 N.am      1    LIG48    0.0000
      2 C1         18.2150   -7.6480    0.7260 C.3       1    LIG48    0.0000
      3 C2         17.4820   -8.8170    0.0410 C.3       1    LIG48    0.0000
      4 C3         18.8700   -6.6620   -1.3900 C.3       1    LIG48    0.0000
      5 C4         18.4940   -7.9160   -2.0760 C.2       1    LIG48    0.0000
      6 C5         17.8180   -8.9430   -1.3870 C.2       1    LIG48    0.0000
      7 N2         17.4670  -10.0710   -2.0510 N.2       1    LIG48    0.0000
      8 C6         17.7450  -10.2980   -3.3620 C.2       1    LIG48    0.0000
      9 C7         18.4420   -9.3100   -4.0790 C.2       1    LIG48    0.0000
     10 C8         18.8150   -8.1220   -3.4310 C.2       1    LIG48    0.0000
     11 N3         17.3860  -11.4390   -4.0020 N.pl3     1    LIG48    0.0000
     12 C9         16.7050  -12.4780   -3.4650 C.2       1    LIG48    0.0000
     13 N4         16.2660  -12.5050   -2.1840 N.2       1    LIG48    0.0000
     14 C10        15.5790  -13.5280   -1.6070 C.2       1    LIG48    0.0000
     15 C11        15.3130  -14.6500   -2.4360 C.2       1    LIG48    0.0000
     16 C12        15.7690  -14.6200   -3.7640 C.2       1    LIG48    0.0000
     17 N5         16.4440  -13.5500   -4.2420 N.2       1    LIG48    0.0000
     18 C13        15.2050  -13.3560   -0.2280 C.2       1    LIG48    0.0000
     19 C14        15.5310  -12.1370    0.4340 C.2       1    LIG48    0.0000
     20 C15        15.2010  -11.8960    1.7810 C.2       1    LIG48    0.0000
     21 C16        14.5220  -14.3410    0.5360 C.2       1    LIG48    0.0000
     22 C17        14.1910  -14.1070    1.8830 C.2       1    LIG48    0.0000
     23 C18        14.5290  -12.9030    2.4860 C.2       1    LIG48    0.0000
     24 N6         14.1120  -12.9230    3.7550 N.2       1    LIG48    0.0000
     25 C19        13.5250  -14.1200    3.9400 C.2       1    LIG48    0.0000
     26 N7         13.5610  -14.8660    2.8050 N.pl3     1    LIG48    0.0000
     27 C20        17.5320   -5.3470    0.1880 C.2       1    LIG48    0.0000
     28 C21        12.9530  -14.4660    5.2460 C.3       1    LIG48    0.0000
     29 C22        13.0350  -16.1920    2.6310 C.3       1    LIG48    0.0000
     30 F1         15.5160  -10.7670    2.3510 F         1    LIG48    0.0000
     31 F2         14.6650  -15.7190   -2.0670 F         1    LIG48    0.0000
     32 C23        11.9110  -16.2350    1.5810 C.3       1    LIG48    0.0000
     33 C24        14.1390  -17.2120    2.2990 C.3       1    LIG48    0.0000
     34 O1         17.5640   -4.3720   -0.5970 O.2       1    LIG48    0.0000
     35 C25        16.7780   -5.1740    1.4370 C.3       1    LIG48    0.0000
     36 O2         15.6980   -6.0980    1.5010 O.3       1    LIG48    0.0000
     37 H1         19.2550   -7.9310    0.8990 H         1    LIG48    0.0000
     38 H2         17.7520   -7.4710    1.6960 H         1    LIG48    0.0000
     39 H3         16.4050   -8.6710    0.1330 H         1    LIG48    0.0000
     40 H4         17.7550   -9.7400    0.5540 H         1    LIG48    0.0000
     41 H5         18.6640   -5.8240   -2.0600 H         1    LIG48    0.0000
     42 H6         19.9440   -6.6850   -1.2010 H         1    LIG48    0.0000
     43 H7         18.6740   -9.4500   -5.0640 H         1    LIG48    0.0000
     44 H8         19.3150   -7.4000   -3.9510 H         1    LIG48    0.0000
     45 H9         17.6400  -11.5220   -4.9340 H         1    LIG48    0.0000
     46 H10        15.5910  -15.4120   -4.3840 H         1    LIG48    0.0000
     47 H11        16.0190  -11.3950   -0.0710 H         1    LIG48    0.0000
     48 H12        14.2630  -15.2320    0.1320 H         1    LIG48    0.0000
     49 H13        12.5170  -15.4610    5.2570 H         1    LIG48    0.0000
     50 H14        13.7390  -14.4200    6.0000 H         1    LIG48    0.0000
     51 H15        12.1790  -13.7410    5.4970 H         1    LIG48    0.0000
     52 H16        12.5850  -16.5400    3.5570 H         1    LIG48    0.0000
     53 H17        11.4520  -17.2240    1.5830 H         1    LIG48    0.0000
     54 H18        11.1530  -15.4920    1.8300 H         1    LIG48    0.0000
     55 H19        12.2980  -16.0310    0.5840 H         1    LIG48    0.0000
     56 H20        13.7200  -18.2180    2.3210 H         1    LIG48    0.0000
     57 H21        14.5580  -17.0280    1.3110 H         1    LIG48    0.0000
     58 H22        14.9330  -17.1430    3.0430 H         1    LIG48    0.0000
     59 H23        17.4420   -5.3240    2.2880 H         1    LIG48    0.0000
     60 H24        16.3720   -4.1620    1.4840 H         1    LIG48    0.0000
     61 H25        15.1460   -6.0210    2.3070 H         1    LIG48    0.0000
@<TRIPOS>BOND
     1    1    2 1
     2    1    4 1
     3    1   27 1
     4    2    3 1
     5    2   37 1
     6    2   38 1
     7    3    6 1
     8    3   39 1
     9    3   40 1
    10    4    5 1
    11    4   41 1
    12    4   42 1
    13    5    6 1
    14    5   10 2
    15    6    7 2
    16    7    8 1
    17    8    9 2
    18    8   11 1
    19    9   10 1
    20    9   43 1
    21   10   44 1
    22   11   12 1
    23   11   45 1
    24   12   13 2
    25   12   17 1
    26   13   14 1
    27   14   15 2
    28   14   18 1
    29   15   16 1
    30   15   31 1
    31   16   17 2
    32   16   46 1
    33   18   19 2
    34   18   21 1
    35   19   20 1
    36   19   47 1
    37   20   23 2
    38   20   30 1
    39   21   22 2
    40   21   48 1
    41   22   23 1
    42   22   26 1
    43   23   24 1
    44   24   25 2
    45   25   26 1
    46   25   28 1
    47   26   29 1
    48   27   34 2
    49   27   35 1
    50   28   49 1
    51   28   50 1
    52   28   51 1
    53   29   32 1
    54   29   33 1
    55   29   52 1
    56   32   53 1
    57   32   54 1
    58   32   55 1
    59   33   56 1
    60   33   57 1
    61   33   58 1
    62   35   36 1
    63   35   59 1
    64   35   60 1
    65   36   61 1
@<TRIPOS>SUBSTRUCTURE
     1    LIG48    1   GROUP 1   LIG 1
@<TRIPOS>MOLECULE
1028486
   75    79    1     0     0
SMALL
USER_CHARGES


@<TRIPOS>ATOM
      1 N1         -2.5150    0.5500    0.2690 N.2       1    LIG49    0.0000
      2 C1         -2.6460   -0.7900    0.3910 C.2       1    LIG49    0.0000
      3 C2         -1.6030   -1.5390    0.9670 C.2       1    LIG49    0.0000
      4 C3         -0.4840   -0.8450    1.4640 C.2       1    LIG49    0.0000
      5 C4         -0.4010    0.5540    1.3490 C.2       1    LIG49    0.0000
      6 C5         -1.4400    1.2530    0.7110 C.2       1    LIG49    0.0000
      7 C6         -3.8900   -1.4170   -0.0690 C.3       1    LIG49    0.0000
      8 C7         -4.0200   -2.8840    0.3760 C.3       1    LIG49    0.0000
      9 N2         -2.7380   -3.5860    0.1740 N.3       1    LIG49    0.0000
     10 C8         -1.6910   -3.0100    1.0560 C.3       1    LIG49    0.0000
     11 N3         -1.3740    2.6030    0.6000 N.pl3     1    LIG49    0.0000
     12 C9         -2.2510    3.3800   -0.0800 C.2       1    LIG49    0.0000
     13 N4         -3.1920    2.8800   -0.9160 N.2       1    LIG49    0.0000
     14 C10        -4.0980    3.6220   -1.6080 C.2       1    LIG49    0.0000
     15 C11        -4.0410    5.0270   -1.4180 C.2       1    LIG49    0.0000
     16 C12        -3.0480    5.5440   -0.5700 C.2       1    LIG49    0.0000
     17 N5         -2.1830    4.7210    0.0660 N.2       1    LIG49    0.0000
     18 F1         -4.8030    5.8910   -2.0310 F         1    LIG49    0.0000
     19 C13        -4.9960    2.9100   -2.4720 C.2       1    LIG49    0.0000
     20 C14        -6.1780    3.4860   -3.0140 C.2       1    LIG49    0.0000
     21 C15        -7.0250    2.7730   -3.8860 C.2       1    LIG49    0.0000
     22 C16        -6.6680    1.4640   -4.2370 C.2       1    LIG49    0.0000
     23 C17        -5.5250    0.8630   -3.7280 C.2       1    LIG49    0.0000
     24 C18        -4.7000    1.5640   -2.8280 C.2       1    LIG49    0.0000
     25 F2         -8.1040    3.3260   -4.3630 F         1    LIG49    0.0000
     26 N6         -7.2710    0.6080   -5.0680 N.2       1    LIG49    0.0000
     27 C19        -6.5060   -0.4990   -5.0900 C.2       1    LIG49    0.0000
     28 N7         -5.4240   -0.3660   -4.2780 N.pl3     1    LIG49    0.0000
     29 C20        -6.8840   -1.6260   -5.9480 C.3       1    LIG49    0.0000
     30 C21        -4.3440   -1.2940   -4.0680 C.3       1    LIG49    0.0000
     31 C22        -4.8400   -2.6130   -3.4300 C.3       1    LIG49    0.0000
     32 C23        -3.5220   -1.5290   -5.3550 C.3       1    LIG49    0.0000
     33 C24        -3.0290   -0.2040   -5.9570 C.3       1    LIG49    0.0000
     34 C25        -3.6800   -3.5400   -3.0350 C.3       1    LIG49    0.0000
     35 C26        -2.9170   -5.0320    0.4200 C.3       1    LIG49    0.0000
     36 C27        -1.6960   -5.8350   -0.0590 C.3       1    LIG49    0.0000
     37 N8         -1.9920   -7.2810   -0.1270 N.3       1    LIG49    1.0000
     38 C28        -0.8800   -7.9780   -0.7990 C.3       1    LIG49    0.0000
     39 C29        -2.1790   -7.8550    1.2200 C.3       1    LIG49    0.0000
     40 H1          0.2790   -1.3590    1.9070 H         1    LIG49    0.0000
     41 H2          0.4140    1.0510    1.7110 H         1    LIG49    0.0000
     42 H3         -4.7390   -0.8610    0.3290 H         1    LIG49    0.0000
     43 H4         -3.9170   -1.3590   -1.1540 H         1    LIG49    0.0000
     44 H5         -4.3030   -2.9230    1.4300 H         1    LIG49    0.0000
     45 H6         -4.8060   -3.3540   -0.2170 H         1    LIG49    0.0000
     46 H7         -0.7300   -3.4290    0.7570 H         1    LIG49    0.0000
     47 H8         -1.8840   -3.2850    2.0950 H         1    LIG49    0.0000
     48 H9         -0.6520    3.0550    1.0620 H         1    LIG49    0.0000
     49 H10        -2.9660    6.5520   -0.4330 H         1    LIG49    0.0000
     50 H11        -6.4590    4.4310   -2.7630 H         1    LIG49    0.0000
     51 H12        -3.8640    1.1050   -2.4660 H         1    LIG49    0.0000
     52 H13        -6.1590   -2.4310   -5.9120 H         1    LIG49    0.0000
     53 H14        -7.8530   -2.0080   -5.6280 H         1    LIG49    0.0000
     54 H15        -6.9640   -1.2760   -6.9770 H         1    LIG49    0.0000
     55 H16        -3.6420   -0.8660   -3.3520 H         1    LIG49    0.0000
     56 H17        -5.4100   -2.3710   -2.5320 H         1    LIG49    0.0000
     57 H18        -5.4910   -3.1570   -4.1090 H         1    LIG49    0.0000
     58 H19        -2.6470   -2.1310   -5.1140 H         1    LIG49    0.0000
     59 H20        -4.1100   -2.0590   -6.1020 H         1    LIG49    0.0000
     60 H21        -2.3820   -0.4130   -6.8090 H         1    LIG49    0.0000
     61 H22        -3.8770    0.3930   -6.2920 H         1    LIG49    0.0000
     62 H23        -2.4670    0.3540   -5.2080 H         1    LIG49    0.0000
     63 H24        -4.0640   -4.3630   -2.4320 H         1    LIG49    0.0000
     64 H25        -3.2090   -3.9480   -3.9290 H         1    LIG49    0.0000
     65 H26        -2.9380   -2.9890   -2.4560 H         1    LIG49    0.0000
     66 H27        -3.0870   -5.2100    1.4830 H         1    LIG49    0.0000
     67 H28        -3.7850   -5.3850   -0.1380 H         1    LIG49    0.0000
     68 H29        -1.4350   -5.4790   -1.0570 H         1    LIG49    0.0000
     69 H30        -0.8520   -5.6580    0.6090 H         1    LIG49    0.0000
     70 H31        -1.1020   -9.0430   -0.8710 H         1    LIG49    0.0000
     71 H32        -0.7530   -7.5820   -1.8070 H         1    LIG49    0.0000
     72 H33         0.0480   -7.8420   -0.2410 H         1    LIG49    0.0000
     73 H34        -2.3340   -8.9320    1.1430 H         1    LIG49    0.0000
     74 H35        -1.3030   -7.6640    1.8410 H         1    LIG49    0.0000
     75 H36        -3.0580   -7.4180    1.6940 H         1    LIG49    0.0000
@<TRIPOS>BOND
     1    1    2 2
     2    1    6 1
     3    2    3 1
     4    2    7 1
     5    3    4 2
     6    3   10 1
     7    4    5 1
     8    4   40 1
     9    5    6 2
    10    5   41 1
    11    6   11 1
    12    7    8 1
    13    7   42 1
    14    7   43 1
    15    8    9 1
    16    8   44 1
    17    8   45 1
    18    9   10 1
    19    9   35 1
    20   10   46 1
    21   10   47 1
    22   11   12 1
    23   11   48 1
    24   12   13 2
    25   12   17 1
    26   13   14 1
    27   14   15 2
    28   14   19 1
    29   15   16 1
    30   15   18 1
    31   16   17 2
    32   16   49 1
    33   19   20 2
    34   19   24 1
    35   20   21 1
    36   20   50 1
    37   21   22 2
    38   21   25 1
    39   22   23 1
    40   22   26 1
    41   23   24 2
    42   23   28 1
    43   24   51 1
    44   26   27 2
    45   27   28 1
    46   27   29 1
    47   28   30 1
    48   29   52 1
    49   29   53 1
    50   29   54 1
    51   30   31 1
    52   30   32 1
    53   30   55 1
    54   31   34 1
    55   31   56 1
    56   31   57 1
    57   32   33 1
    58   32   58 1
    59   32   59 1
    60   33   60 1
    61   33   61 1
    62   33   62 1
    63   34   63 1
    64   34   64 1
    65   34   65 1
    66   35   36 1
    67   35   66 1
    68   35   67 1
    69   36   37 1
    70   36   68 1
    71   36   69 1
    72   37   38 1
    73   37   39 1
    74   38   70 1
    75   38   71 1
    76   38   72 1
    77   39   73 1
    78   39   74 1
    79   39   75 1
@<TRIPOS>SUBSTRUCTURE
     1    LIG49    1   GROUP 1   LIG 1
@<TRIPOS>MOLECULE
111474
   59    62    1     0     0
SMALL
USER_CHARGES


@<TRIPOS>ATOM
      1 C1          3.3060    2.6860   -0.2860 C.2       1    LIG50    0.0000
      2 N1          1.9730    2.5150   -0.0310 N.am      1    LIG50    0.0000
      3 C2          1.4430    1.2730    0.2230 C.2       1    LIG50    0.0000
      4 N2          2.2300    0.2100    0.2290 N.2       1    LIG50    0.0000
      5 C3          4.1230    1.5430   -0.2660 C.2       1    LIG50    0.0000
      6 C4          5.4730    1.2880   -0.4580 C.2       1    LIG50    0.0000
      7 C5          3.5340    0.3220    0.0070 C.2       1    LIG50    0.0000
      8 N3          4.5080   -0.6080    0.0020 N.pl3     1    LIG50    0.0000
      9 N4          5.6460   -0.0380   -0.2810 N.2       1    LIG50    0.0000
     10 C6          6.5410    2.2450   -0.7950 C.3       1    LIG50    0.0000
     11 C7          7.6130    2.2700    0.3080 C.3       1    LIG50    0.0000
     12 C8          7.1880    1.8730   -2.1410 C.3       1    LIG50    0.0000
     13 C9          4.3530   -1.9410    0.2490 C.2       1    LIG50    0.0000
     14 C10         3.9590   -2.4040    1.5320 C.2       1    LIG50    0.0000
     15 C11         4.5920   -2.8870   -0.7800 C.2       1    LIG50    0.0000
     16 C12         4.4260   -4.2620   -0.5300 C.2       1    LIG50    0.0000
     17 C13         4.0280   -4.7120    0.7400 C.2       1    LIG50    0.0000
     18 C14         3.7980   -3.7830    1.7680 C.2       1    LIG50    0.0000
     19 Cl1         3.7010   -1.3580    2.8440 Cl        1    LIG50    0.0000
     20 Cl2         5.0510   -2.4230   -2.3460 Cl        1    LIG50    0.0000
     21 Cl3         3.8320   -6.3670    1.0330 Cl        1    LIG50    0.0000
     22 O1          3.7610    3.8270   -0.5180 O.2       1    LIG50    0.0000
     23 C15         0.0080    1.1140    0.4980 C.3       1    LIG50    0.0000
     24 C16        -0.2270    0.4260    1.7860 C.2       1    LIG50    0.0000
     25 C17         0.1130    1.0450    3.0070 C.2       1    LIG50    0.0000
     26 C18        -0.0700    0.3680    4.2250 C.2       1    LIG50    0.0000
     27 C19        -0.5890   -0.9390    4.2350 C.2       1    LIG50    0.0000
     28 C20        -0.9540   -1.5520    3.0240 C.2       1    LIG50    0.0000
     29 C21        -0.7730   -0.8740    1.8070 C.2       1    LIG50    0.0000
     30 O2         -0.7640   -1.6030    5.4120 O.3       1    LIG50    0.0000
     31 C22         0.2740   -2.4220    5.9800 C.3       1    LIG50    0.0000
     32 C23        -0.3100   -3.0090    7.2780 C.3       1    LIG50    0.0000
     33 C24         0.6380   -3.5180    5.0990 C.2       1    LIG50    0.0000
     34 C25         1.4940   -1.5550    6.3680 C.3       1    LIG50    0.0000
     35 O3          1.7840   -3.6870    4.7130 O.2       1    LIG50    0.0000
     36 O4         -0.2800   -4.3730    4.6860 O.3       1    LIG50    0.0000
     37 H1          1.3910    3.2900   -0.0330 H         1    LIG50    0.0000
     38 H2          6.1260    3.2490   -0.8860 H         1    LIG50    0.0000
     39 H3          8.3830    2.9990    0.0500 H         1    LIG50    0.0000
     40 H4          7.1620    2.5550    1.2600 H         1    LIG50    0.0000
     41 H5          8.0750    1.2860    0.4080 H         1    LIG50    0.0000
     42 H6          7.9580    2.6040   -2.3890 H         1    LIG50    0.0000
     43 H7          7.6440    0.8830   -2.0800 H         1    LIG50    0.0000
     44 H8          6.4340    1.8740   -2.9300 H         1    LIG50    0.0000
     45 H9          4.5920   -4.9410   -1.2760 H         1    LIG50    0.0000
     46 H10         3.5170   -4.1140    2.6940 H         1    LIG50    0.0000
     47 H11        -0.4770    2.0920    0.5170 H         1    LIG50    0.0000
     48 H12        -0.4250    0.5390   -0.3230 H         1    LIG50    0.0000
     49 H13         0.5050    1.9870    3.0100 H         1    LIG50    0.0000
     50 H14         0.1850    0.8220    5.1020 H         1    LIG50    0.0000
     51 H15        -1.3460   -2.4940    3.0280 H         1    LIG50    0.0000
     52 H16        -1.0270   -1.3370    0.9340 H         1    LIG50    0.0000
     53 H17         0.4280   -3.6450    7.7700 H         1    LIG50    0.0000
     54 H18        -0.5890   -2.2000    7.9540 H         1    LIG50    0.0000
     55 H19        -1.1980   -3.6000    7.0520 H         1    LIG50    0.0000
     56 H20         2.2180   -2.1570    6.9200 H         1    LIG50    0.0000
     57 H21         1.9750   -1.1600    5.4740 H         1    LIG50    0.0000
     58 H22         1.1690   -0.7240    6.9950 H         1    LIG50    0.0000
     59 H23         0.0740   -5.0720    4.0990 H         1    LIG50    0.0000
@<TRIPOS>BOND
     1    1    2 1
     2    1    5 1
     3    1   22 2
     4    2    3 1
     5    2   37 1
     6    3    4 2
     7    3   23 1
     8    4    7 1
     9    5    6 1
    10    5    7 2
    11    6    9 2
    12    6   10 1
    13    7    8 1
    14    8    9 1
    15    8   13 1
    16   10   11 1
    17   10   12 1
    18   10   38 1
    19   11   39 1
    20   11   40 1
    21   11   41 1
    22   12   42 1
    23   12   43 1
    24   12   44 1
    25   13   14 2
    26   13   15 1
    27   14   18 1
    28   14   19 1
    29   15   16 2
    30   15   20 1
    31   16   17 1
    32   16   45 1
    33   17   18 2
    34   17   21 1
    35   18   46 1
    36   23   24 1
    37   23   47 1
    38   23   48 1
    39   24   25 2
    40   24   29 1
    41   25   26 1
    42   25   49 1
    43   26   27 2
    44   26   50 1
    45   27   28 1
    46   27   30 1
    47   28   29 2
    48   28   51 1
    49   29   52 1
    50   30   31 1
    51   31   32 1
    52   31   33 1
    53   31   34 1
    54   32   53 1
    55   32   54 1
    56   32   55 1
    57   33   35 2
    58   33   36 1
    59   34   56 1
    60   34   57 1
    61   34   58 1
    62   36   59 1
@<TRIPOS>SUBSTRUCTURE
     1    LIG50    1   GROUP 1   LIG 1
