# Mol2 written by MVD (www.molegro.com)

@<TRIPOS>MOLECULE
ZINC00491073
   42    45    1     0     0
SMALL
USER_CHARGES


@<TRIPOS>ATOM
      1 C1         -0.0178    1.4648    0.0101 C.3       1    LIG40    0.0000
      2 N1          0.0021   -0.0041    0.0020 N.3       1    LIG40    0.0000
      3 C2         -1.3487   -0.4766   -0.1051 C.3       1    LIG40    0.0000
      4 C3         -1.4957   -1.8208   -0.7552 C.3       1    LIG40    0.0000
      5 C4         -1.1986   -2.9607    0.1979 C.3       1    LIG40    0.0000
      6 C5         -2.0769   -2.9074    1.4042 C.2       1    LIG40    0.0000
      7 C6         -2.9213   -3.8188    1.7532 C.2       1    LIG40    0.0000
      8 C7         -3.1380   -5.0863    0.9901 C.3       1    LIG40    0.0000
      9 C8         -2.6198   -4.9844   -0.4299 C.3       1    LIG40    0.0000
     10 C9         -1.2869   -4.2969   -0.5425 C.3       1    LIG40    0.0000
     11 O1         -0.2232   -5.0787    0.0155 O.3       1    LIG40    0.0000
     12 C10         0.7233   -4.2458    0.5013 C.ar      1    LIG40    0.0000
     13 C11         0.2527   -2.9329    0.6428 C.ar      1    LIG40    0.0000
     14 C12         1.0216   -1.9269    1.1409 C.ar      1    LIG40    0.0000
     15 C13         2.3121   -2.2785    1.5668 C.ar      1    LIG40    0.0000
     16 C14         2.7995   -3.5564    1.4290 C.ar      1    LIG40    0.0000
     17 C15         2.0296   -4.5760    0.8827 C.ar      1    LIG40    0.0000
     18 O2          2.5209   -5.8345    0.7267 O.3       1    LIG40    0.0000
     19 C16         3.8668   -6.0626    1.1493 C.3       1    LIG40    0.0000
     20 C17         0.7068   -0.4603    1.1832 C.3       1    LIG40    0.0000
     21 O3         -2.4591   -6.1527    1.6564 O.3       1    LIG40    0.0000
     22 H1          1.0171    1.7971    0.0920 H         1    LIG40    0.0000
     23 H2         -0.4724    1.7825   -0.9282 H         1    LIG40    0.0000
     24 H3         -0.6110    1.7707    0.8718 H         1    LIG40    0.0000
     25 H4         -1.8492    0.2431   -0.7529 H         1    LIG40    0.0000
     26 H5         -1.7445   -0.5317    0.9090 H         1    LIG40    0.0000
     27 H6         -0.7779   -1.8708   -1.5740 H         1    LIG40    0.0000
     28 H7         -2.5259   -1.9182   -1.0977 H         1    LIG40    0.0000
     29 H8         -1.9985   -2.0270    2.0420 H         1    LIG40    0.0000
     30 H9         -3.5101   -3.6553    2.6558 H         1    LIG40    0.0000
     31 H10        -4.2108   -5.2744    0.9462 H         1    LIG40    0.0000
     32 H11        -3.3377   -4.3968   -1.0022 H         1    LIG40    0.0000
     33 H12        -2.4871   -6.0007   -0.8009 H         1    LIG40    0.0000
     34 H13        -1.1889   -4.1501   -1.6181 H         1    LIG40    0.0000
     35 H14         2.9460   -1.5162    2.0198 H         1    LIG40    0.0000
     36 H15         3.8158   -3.7755    1.7566 H         1    LIG40    0.0000
     37 H16         4.0893   -7.1113    0.9523 H         1    LIG40    0.0000
     38 H17         4.5016   -5.3969    0.5646 H         1    LIG40    0.0000
     39 H18         3.9100   -5.8323    2.2138 H         1    LIG40    0.0000
     40 H19         0.0388   -0.2868    2.0268 H         1    LIG40    0.0000
     41 H20         1.6351    0.1061    1.2572 H         1    LIG40    0.0000
     42 H21        -2.8329   -6.1951    2.6152 H         1    LIG40    0.0000
@<TRIPOS>BOND
     1    1    2 1
     2    1   22 1
     3    1   23 1
     4    1   24 1
     5    2    3 1
     6    2   20 1
     7    3    4 1
     8    3   25 1
     9    3   26 1
    10    4    5 1
    11    4   27 1
    12    4   28 1
    13    5    6 1
    14    5   10 1
    15    5   13 1
    16    6    7 2
    17    6   29 1
    18    7    8 1
    19    7   30 1
    20    8    9 1
    21    8   21 1
    22    8   31 1
    23    9   10 1
    24    9   32 1
    25    9   33 1
    26   10   11 1
    27   10   34 1
    28   11   12 1
    29   12   13 ar
    30   12   17 ar
    31   13   14 ar
    32   14   15 ar
    33   14   20 1
    34   15   16 ar
    35   15   35 1
    36   16   17 ar
    37   16   36 1
    38   17   18 1
    39   18   19 1
    40   19   37 1
    41   19   38 1
    42   19   39 1
    43   20   40 1
    44   20   41 1
    45   21   42 1
@<TRIPOS>SUBSTRUCTURE
     1    LIG40    1   GROUP 1   LIG 1
@<TRIPOS>MOLECULE
ZINC03817234
   78    82    1     0     0
SMALL
USER_CHARGES


@<TRIPOS>ATOM
      1 C1          0.2988   -3.3187    1.4451 C.3       1    LIG11    0.0000
      2 C2          0.1387   -2.0700    0.6168 C.ar      1    LIG11    0.0000
      3 N1          0.1712   -1.9964   -0.6859 N.ar      1    LIG11    0.0000
      4 N2         -0.0007   -0.7766   -1.0551 N.ar      1    LIG11    0.0000
      5 C3         -0.1508   -0.0166   -0.0046 C.ar      1    LIG11    0.0000
      6 N3         -0.0717   -0.8165    1.0862 N.pl3     1    LIG11    0.0000
      7 C4         -0.1871   -0.4084    2.4885 C.3       1    LIG11    0.0000
      8 C5         -1.5587    0.2314    2.7216 C.3       1    LIG11    0.0000
      9 C6         -1.6116    0.7876    4.1535 C.3       1    LIG11    0.0000
     10 C7         -1.0997   -0.3154    5.1084 C.3       1    LIG11    0.0000
     11 C8          0.4273   -0.1040    5.1739 C.3       1    LIG11    0.0000
     12 C9          0.6992    1.1076    4.2527 C.3       1    LIG11    0.0000
     13 C10         0.9167    0.6008    2.8177 C.3       1    LIG11    0.0000
     14 N4         -0.5952    1.8695    4.2439 N.3       1    LIG11    0.0000
     15 C11        -0.7568    2.6282    5.4914 C.3       1    LIG11    0.0000
     16 C12         0.2170    3.8082    5.5005 C.3       1    LIG11    0.0000
     17 C13         0.0487    4.5984    6.7998 C.3       1    LIG11    0.0000
     18 C14         1.0897    5.6861    6.8646 C.ar      1    LIG11    0.0000
     19 C15         0.9009    6.8659    6.1694 C.ar      1    LIG11    0.0000
     20 C16         1.8557    7.8636    6.2289 C.ar      1    LIG11    0.0000
     21 C17         2.9993    7.6818    6.9840 C.ar      1    LIG11    0.0000
     22 C18         3.1877    6.5024    7.6800 C.ar      1    LIG11    0.0000
     23 C19         2.2308    5.5064    7.6239 C.ar      1    LIG11    0.0000
     24 N5         -1.2874    5.1983    6.8369 N.am      1    LIG11    0.0000
     25 C20        -1.8594    5.4968    8.0201 C.2       1    LIG11    0.0000
     26 O1         -1.2681    5.2688    9.0542 O.2       1    LIG11    0.0000
     27 C21        -3.2337    6.1139    8.0583 C.3       1    LIG11    0.0000
     28 C22        -3.2147    7.4482    7.3098 C.3       1    LIG11    0.0000
     29 C23        -4.6100    8.0747    7.3486 C.3       1    LIG11    0.0000
     30 C24        -5.0225    8.3114    8.8028 C.3       1    LIG11    0.0000
     31 C25        -5.0416    6.9771    9.5512 C.3       1    LIG11    0.0000
     32 C26        -3.6463    6.3506    9.5125 C.3       1    LIG11    0.0000
     33 F1         -4.1064    9.1752    9.4127 F         1    LIG11    0.0000
     34 F2         -6.2984    8.8843    8.8382 F         1    LIG11    0.0000
     35 C27        -0.3760    1.4734   -0.0051 C.3       1    LIG11    0.0000
     36 C28         0.8057    2.1676   -0.6853 C.3       1    LIG11    0.0000
     37 C29        -1.6634    1.7944   -0.7670 C.3       1    LIG11    0.0000
     38 H1          0.2189   -3.0202    2.4904 H         1    LIG11    0.0000
     39 H2         -0.5027   -3.9982    1.1554 H         1    LIG11    0.0000
     40 H3          1.2817   -3.7299    1.2150 H         1    LIG11    0.0000
     41 H4         -0.0820   -1.2809    3.1334 H         1    LIG11    0.0000
     42 H5         -2.3392   -0.5177    2.5882 H         1    LIG11    0.0000
     43 H6         -1.7162    1.0370    2.0044 H         1    LIG11    0.0000
     44 H7         -2.6201    1.1220    4.3969 H         1    LIG11    0.0000
     45 H8         -1.3559   -1.3131    4.7520 H         1    LIG11    0.0000
     46 H9         -1.5601   -0.2442    6.0938 H         1    LIG11    0.0000
     47 H10         0.9722   -0.9905    4.8493 H         1    LIG11    0.0000
     48 H11         0.7684    0.0755    6.1935 H         1    LIG11    0.0000
     49 H12         1.5598    1.6896    4.5825 H         1    LIG11    0.0000
     50 H13         0.8761    1.4352    2.1175 H         1    LIG11    0.0000
     51 H14         1.8940    0.1259    2.7312 H         1    LIG11    0.0000
     52 H15        -0.5247    1.9604    6.3210 H         1    LIG11    0.0000
     53 H16        -1.7885    2.9693    5.5771 H         1    LIG11    0.0000
     54 H17         0.0084    4.4579    4.6505 H         1    LIG11    0.0000
     55 H18         1.2392    3.4362    5.4313 H         1    LIG11    0.0000
     56 H19         0.1699    3.9283    7.6509 H         1    LIG11    0.0000
     57 H20        -0.0009    7.0094    5.5743 H         1    LIG11    0.0000
     58 H21         1.7069    8.7937    5.6804 H         1    LIG11    0.0000
     59 H22         3.7524    8.4684    7.0306 H         1    LIG11    0.0000
     60 H23         4.0908    6.3578    8.2730 H         1    LIG11    0.0000
     61 H24         2.3760    4.5793    8.1784 H         1    LIG11    0.0000
     62 H25        -1.7896    5.3919    5.9587 H         1    LIG11    0.0000
     63 H26        -3.9474    5.4410    7.5831 H         1    LIG11    0.0000
     64 H27        -2.9209    7.2795    6.2738 H         1    LIG11    0.0000
     65 H28        -2.5009    8.1212    7.7849 H         1    LIG11    0.0000
     66 H29        -5.3238    7.4018    6.8734 H         1    LIG11    0.0000
     67 H30        -4.5964    9.0253    6.8154 H         1    LIG11    0.0000
     68 H31        -5.7553    6.3042    9.0760 H         1    LIG11    0.0000
     69 H32        -5.3355    7.1458   10.5872 H         1    LIG11    0.0000
     70 H33        -2.9326    7.0235    9.9878 H         1    LIG11    0.0000
     71 H34        -3.6599    5.4000   10.0456 H         1    LIG11    0.0000
     72 H35        -0.4636    1.8279    1.0219 H         1    LIG11    0.0000
     73 H36         0.6020    3.2382   -0.6635 H         1    LIG11    0.0000
     74 H37         1.6975    1.9131   -0.1126 H         1    LIG11    0.0000
     75 H38         0.8560    1.7853   -1.7048 H         1    LIG11    0.0000
     76 H39        -1.7867    2.8771   -0.7425 H         1    LIG11    0.0000
     77 H40        -1.5326    1.4243   -1.7839 H         1    LIG11    0.0000
     78 H41        -2.4754    1.2823   -0.2507 H         1    LIG11    0.0000
@<TRIPOS>BOND
     1    1    2 1
     2    1   38 1
     3    1   39 1
     4    1   40 1
     5    2    3 ar
     6    2    6 ar
     7    3    4 ar
     8    4    5 ar
     9    5    6 ar
    10    5   35 1
    11    6    7 1
    12    7    8 1
    13    7   13 1
    14    7   41 1
    15    8    9 1
    16    8   42 1
    17    8   43 1
    18    9   10 1
    19    9   14 1
    20    9   44 1
    21   10   11 1
    22   10   45 1
    23   10   46 1
    24   11   12 1
    25   11   47 1
    26   11   48 1
    27   12   13 1
    28   12   14 1
    29   12   49 1
    30   13   50 1
    31   13   51 1
    32   14   15 1
    33   15   16 1
    34   15   52 1
    35   15   53 1
    36   16   17 1
    37   16   54 1
    38   16   55 1
    39   17   18 1
    40   17   24 1
    41   17   56 1
    42   18   19 ar
    43   18   23 ar
    44   19   20 ar
    45   19   57 1
    46   20   21 ar
    47   20   58 1
    48   21   22 ar
    49   21   59 1
    50   22   23 ar
    51   22   60 1
    52   23   61 1
    53   24   25 am
    54   24   62 1
    55   25   26 2
    56   25   27 1
    57   27   28 1
    58   27   32 1
    59   27   63 1
    60   28   29 1
    61   28   64 1
    62   28   65 1
    63   29   30 1
    64   29   66 1
    65   29   67 1
    66   30   31 1
    67   30   33 1
    68   30   34 1
    69   31   32 1
    70   31   68 1
    71   31   69 1
    72   32   70 1
    73   32   71 1
    74   35   36 1
    75   35   37 1
    76   35   72 1
    77   36   73 1
    78   36   74 1
    79   36   75 1
    80   37   76 1
    81   37   77 1
    82   37   78 1
@<TRIPOS>SUBSTRUCTURE
     1    LIG11    1   GROUP 1   LIG 1
@<TRIPOS>MOLECULE
ZINC04175630
   63    67    1     0     0
SMALL
USER_CHARGES


@<TRIPOS>ATOM
      1 C1         11.0454    1.9280    6.3220 C.ar      1    LIG85    0.0000
      2 C2         10.4759    2.8829    5.4924 C.ar      1    LIG85    0.0000
      3 C3          9.4164    2.5541    4.6728 C.ar      1    LIG85    0.0000
      4 C4          8.9158    1.2607    4.6773 C.ar      1    LIG85    0.0000
      5 C5          9.4890    0.2899    5.5149 C.ar      1    LIG85    0.0000
      6 C6         10.5617    0.6392    6.3389 C.ar      1    LIG85    0.0000
      7 N1          8.8050   -0.8667    5.3112 N.ar      1    LIG85    0.0000
      8 C7          7.8647   -0.6704    4.4241 C.ar      1    LIG85    0.0000
      9 N2          7.8921    0.6243    3.9961 N.pl3     1    LIG85    0.0000
     10 C8          7.0002    1.2305    3.0046 C.3       1    LIG85    0.0000
     11 C9          7.1484    0.4987    1.6678 C.3       1    LIG85    0.0000
     12 C10         6.1708    1.0965    0.6534 C.3       1    LIG85    0.0000
     13 C11         4.6188    1.6951    2.4156 C.3       1    LIG85    0.0000
     14 C12         5.5501    1.1152    3.4826 C.3       1    LIG85    0.0000
     15 C13         3.8224    1.3983    0.1488 C.3       1    LIG85    0.0000
     16 C14         2.4128    1.0143    0.6032 C.3       1    LIG85    0.0000
     17 C15         1.3969    1.4698   -0.4463 C.3       1    LIG85    0.0000
     18 C16        -0.0127    1.0858    0.0080 C.3       1    LIG85    0.0000
     19 C17        -1.0003    1.4234   -1.0791 C.ar      1    LIG85    0.0000
     20 C18        -1.0227    2.6948   -1.6214 C.ar      1    LIG85    0.0000
     21 C19        -1.9246    3.0041   -2.6217 C.ar      1    LIG85    0.0000
     22 C20        -2.8132    2.0431   -3.0734 C.ar      1    LIG85    0.0000
     23 C21        -2.7934    0.7715   -2.5258 C.ar      1    LIG85    0.0000
     24 C22        -1.8870    0.4630   -1.5293 C.ar      1    LIG85    0.0000
     25 F1         -3.6985    2.3457   -4.0480 F         1    LIG85    0.0000
     26 C23        -0.3626    1.8493    1.2593 C.ar      1    LIG85    0.0000
     27 C24        -0.2194    3.2239    1.2925 C.ar      1    LIG85    0.0000
     28 C25        -0.5445    3.9256    2.4378 C.ar      1    LIG85    0.0000
     29 C26        -1.0039    3.2502    3.5559 C.ar      1    LIG85    0.0000
     30 C27        -1.1419    1.8729    3.5232 C.ar      1    LIG85    0.0000
     31 C28        -0.8212    1.1739    2.3750 C.ar      1    LIG85    0.0000
     32 F2         -1.3176    3.9346    4.6776 F         1    LIG85    0.0000
     33 O1          6.9952   -1.6127    3.9925 O.3       1    LIG85    0.0000
     34 N3          4.7922    0.9319    1.1612 N.3       1    LIG85    0.0000
     35 H1         11.8822    2.2002    6.9653 H         1    LIG85    0.0000
     36 H2         10.8683    3.8998    5.4882 H         1    LIG85    0.0000
     37 H3          8.9736    3.3090    4.0231 H         1    LIG85    0.0000
     38 H4         11.0142   -0.1062    6.9930 H         1    LIG85    0.0000
     39 H5          7.2624    2.2810    2.8787 H         1    LIG85    0.0000
     40 H6          6.9301   -0.5604    1.8048 H         1    LIG85    0.0000
     41 H7          8.1687    0.6114    1.3011 H         1    LIG85    0.0000
     42 H8          6.2653    0.6103   -0.3176 H         1    LIG85    0.0000
     43 H9          6.3686    2.1620    0.5362 H         1    LIG85    0.0000
     44 H10         4.8331    2.7488    2.2373 H         1    LIG85    0.0000
     45 H11         3.5825    1.5946    2.7383 H         1    LIG85    0.0000
     46 H12         5.4272    1.6680    4.4139 H         1    LIG85    0.0000
     47 H13         5.3035    0.0669    3.6512 H         1    LIG85    0.0000
     48 H14         3.9152    2.4765    0.0183 H         1    LIG85    0.0000
     49 H15         4.0508    0.9092   -0.7982 H         1    LIG85    0.0000
     50 H16         2.1935    1.4979    1.5551 H         1    LIG85    0.0000
     51 H17         2.3516   -0.0674    0.7227 H         1    LIG85    0.0000
     52 H18         1.6162    0.9862   -1.3982 H         1    LIG85    0.0000
     53 H19         1.4581    2.5515   -0.5657 H         1    LIG85    0.0000
     54 H20        -0.0496    0.0159    0.2129 H         1    LIG85    0.0000
     55 H21        -0.3287    3.4536   -1.2599 H         1    LIG85    0.0000
     56 H22        -1.9365    4.0042   -3.0550 H         1    LIG85    0.0000
     57 H23        -3.4924    0.0141   -2.8806 H         1    LIG85    0.0000
     58 H24        -1.8712   -0.5380   -1.0981 H         1    LIG85    0.0000
     59 H25         0.1501    3.7545    0.4150 H         1    LIG85    0.0000
     60 H26        -0.4393    5.0103    2.4610 H         1    LIG85    0.0000
     61 H27        -1.5034    1.3402    4.4028 H         1    LIG85    0.0000
     62 H28        -0.9299    0.0896    2.3490 H         1    LIG85    0.0000
     63 H29         7.2229   -2.4841    4.4923 H         1    LIG85    0.0000
@<TRIPOS>BOND
     1    1    2 ar
     2    1    6 ar
     3    1   35 1
     4    2    3 ar
     5    2   36 1
     6    3    4 ar
     7    3   37 1
     8    4    5 ar
     9    4    9 ar
    10    5    6 ar
    11    5    7 ar
    12    6   38 1
    13    7    8 ar
    14    8    9 ar
    15    8   33 1
    16    9   10 1
    17   10   11 1
    18   10   14 1
    19   10   39 1
    20   11   12 1
    21   11   40 1
    22   11   41 1
    23   12   34 1
    24   12   42 1
    25   12   43 1
    26   13   14 1
    27   13   34 1
    28   13   44 1
    29   13   45 1
    30   14   46 1
    31   14   47 1
    32   15   16 1
    33   15   34 1
    34   15   48 1
    35   15   49 1
    36   16   17 1
    37   16   50 1
    38   16   51 1
    39   17   18 1
    40   17   52 1
    41   17   53 1
    42   18   19 1
    43   18   26 1
    44   18   54 1
    45   19   20 ar
    46   19   24 ar
    47   20   21 ar
    48   20   55 1
    49   21   22 ar
    50   21   56 1
    51   22   23 ar
    52   22   25 1
    53   23   24 ar
    54   23   57 1
    55   24   58 1
    56   26   27 ar
    57   26   31 ar
    58   27   28 ar
    59   27   59 1
    60   28   29 ar
    61   28   60 1
    62   29   30 ar
    63   29   32 1
    64   30   31 ar
    65   30   61 1
    66   31   62 1
    67   33   63 1
@<TRIPOS>SUBSTRUCTURE
     1    LIG85    1   GROUP 1   LIG 1
@<TRIPOS>MOLECULE
ZINC19632891
   56    59    1     0     0
SMALL
USER_CHARGES


@<TRIPOS>ATOM
      1 C1         -0.5628    1.2510    0.7251 C.ar      1    LIG16    0.0000
      2 C2          0.5431    2.0576    0.9261 C.ar      1    LIG16    0.0000
      3 C3          1.8090    1.5087    0.9326 C.ar      1    LIG16    0.0000
      4 C4          1.9723    0.1369    0.7362 C.ar      1    LIG16    0.0000
      5 C5          0.8527   -0.6711    0.5345 C.ar      1    LIG16    0.0000
      6 C6         -0.4076   -0.1097    0.5298 C.ar      1    LIG16    0.0000
      7 C7          3.3255   -0.4577    0.7415 C.2       1    LIG16    0.0000
      8 C8          3.4775   -1.7613    0.5547 C.2       1    LIG16    0.0000
      9 C9          4.8572   -2.3675    0.5600 C.3       1    LIG16    0.0000
     10 N1          4.9119   -3.4516    1.5498 N.3       1    LIG16    0.0000
     11 C10         4.0107   -4.5360    1.1382 C.3       1    LIG16    0.0000
     12 C11         4.0531   -5.6573    2.1786 C.3       1    LIG16    0.0000
     13 N2          5.4293   -6.1593    2.2978 N.3       1    LIG16    0.0000
     14 C12         6.3474   -5.0790    2.6852 C.3       1    LIG16    0.0000
     15 C13         6.2860   -3.9624    1.6406 C.3       1    LIG16    0.0000
     16 C14         5.5014   -7.2775    3.2479 C.3       1    LIG16    0.0000
     17 C15         4.5653   -8.3728    2.8065 C.ar      1    LIG16    0.0000
     18 C16         4.5133   -8.7430    1.4756 C.ar      1    LIG16    0.0000
     19 C17         3.6546   -9.7478    1.0707 C.ar      1    LIG16    0.0000
     20 C18         2.8482  -10.3827    1.9967 C.ar      1    LIG16    0.0000
     21 C19         2.9008  -10.0131    3.3277 C.ar      1    LIG16    0.0000
     22 C20         3.7627   -9.0113    3.7333 C.ar      1    LIG16    0.0000
     23 C21         6.9109   -7.8088    3.2923 C.ar      1    LIG16    0.0000
     24 C22         7.6131   -8.0045    2.1177 C.ar      1    LIG16    0.0000
     25 C23         8.9061   -8.4919    2.1585 C.ar      1    LIG16    0.0000
     26 C24         9.4969   -8.7833    3.3737 C.ar      1    LIG16    0.0000
     27 C25         8.7950   -8.5868    4.5483 C.ar      1    LIG16    0.0000
     28 C26         7.5036   -8.0953    4.5078 C.ar      1    LIG16    0.0000
     29 H1         -1.5607    1.6895    0.7206 H         1    LIG16    0.0000
     30 H2          0.4141    3.1290    1.0797 H         1    LIG16    0.0000
     31 H3          2.6795    2.1453    1.0908 H         1    LIG16    0.0000
     32 H4          0.9735   -1.7435    0.3810 H         1    LIG16    0.0000
     33 H5         -1.2829   -0.7397    0.3719 H         1    LIG16    0.0000
     34 H6          4.1985    0.1757    0.8990 H         1    LIG16    0.0000
     35 H7          2.6045   -2.3947    0.3973 H         1    LIG16    0.0000
     36 H8          5.6048   -1.6134    0.8059 H         1    LIG16    0.0000
     37 H9          5.0734   -2.7865   -0.4228 H         1    LIG16    0.0000
     38 H10         4.3632   -4.9174    0.1799 H         1    LIG16    0.0000
     39 H11         3.0002   -4.1436    1.0238 H         1    LIG16    0.0000
     40 H12         3.3899   -6.4768    1.9017 H         1    LIG16    0.0000
     41 H13         3.7544   -5.2633    3.1500 H         1    LIG16    0.0000
     42 H14         7.3559   -5.4914    2.7177 H         1    LIG16    0.0000
     43 H15         6.0765   -4.7088    3.6740 H         1    LIG16    0.0000
     44 H16         6.9283   -3.1388    1.9524 H         1    LIG16    0.0000
     45 H17         6.6045   -4.3214    0.6619 H         1    LIG16    0.0000
     46 H18         5.2125   -6.9306    4.2400 H         1    LIG16    0.0000
     47 H19         5.1494   -8.2426    0.7455 H         1    LIG16    0.0000
     48 H20         3.6134  -10.0395    0.0213 H         1    LIG16    0.0000
     49 H21         2.1709  -11.1748    1.6774 H         1    LIG16    0.0000
     50 H22         2.2627  -10.5116    4.0574 H         1    LIG16    0.0000
     51 H23         3.8094   -8.7249    4.7840 H         1    LIG16    0.0000
     52 H24         7.1473   -7.7745    1.1595 H         1    LIG16    0.0000
     53 H25         9.4597   -8.6464    1.2324 H         1    LIG16    0.0000
     54 H26        10.5162   -9.1680    3.4058 H         1    LIG16    0.0000
     55 H27         9.2598   -8.8194    5.5064 H         1    LIG16    0.0000
     56 H28         6.9527   -7.9337    5.4343 H         1    LIG16    0.0000
@<TRIPOS>BOND
     1    1    2 ar
     2    1    6 ar
     3    1   29 1
     4    2    3 ar
     5    2   30 1
     6    3    4 ar
     7    3   31 1
     8    4    5 ar
     9    4    7 1
    10    5    6 ar
    11    5   32 1
    12    6   33 1
    13    7    8 2
    14    7   34 1
    15    8    9 1
    16    8   35 1
    17    9   10 1
    18    9   36 1
    19    9   37 1
    20   10   11 1
    21   10   15 1
    22   11   12 1
    23   11   38 1
    24   11   39 1
    25   12   13 1
    26   12   40 1
    27   12   41 1
    28   13   14 1
    29   13   16 1
    30   14   15 1
    31   14   42 1
    32   14   43 1
    33   15   44 1
    34   15   45 1
    35   16   17 1
    36   16   23 1
    37   16   46 1
    38   17   18 ar
    39   17   22 ar
    40   18   19 ar
    41   18   47 1
    42   19   20 ar
    43   19   48 1
    44   20   21 ar
    45   20   49 1
    46   21   22 ar
    47   21   50 1
    48   22   51 1
    49   23   24 ar
    50   23   28 ar
    51   24   25 ar
    52   24   52 1
    53   25   26 ar
    54   25   53 1
    55   26   27 ar
    56   26   54 1
    57   27   28 ar
    58   27   55 1
    59   28   56 1
@<TRIPOS>SUBSTRUCTURE
     1    LIG16    1   GROUP 1   LIG 1
@<TRIPOS>MOLECULE
ZINC03917708
   70    74    1     0     0
SMALL
USER_CHARGES


@<TRIPOS>ATOM
      1 C1          0.5068    0.1108    7.2486 C.3       1    LIG62    0.0000
      2 C2          0.1820   -0.2855    5.8069 C.3       1    LIG62    0.0000
      3 C3         -0.5219   -1.6450    5.7974 C.3       1    LIG62    0.0000
      4 C4         -0.8974   -2.0068    4.3571 C.3       1    LIG62    0.0000
      5 C5         -1.7743   -0.8940    3.7749 C.3       1    LIG62    0.0000
      6 C6         -1.0220    0.4365    3.8625 C.3       1    LIG62    0.0000
      7 O1         -0.6758    0.6977    5.2241 O.3       1    LIG62    0.0000
      8 O2          0.1674    0.3642    3.0738 O.3       1    LIG62    0.0000
      9 C7          0.7904    1.6297    2.8442 C.3       1    LIG62    0.0000
     10 C8          1.8741    1.8552    3.8961 C.3       1    LIG62    0.0000
     11 C9          2.6697    3.1070    3.5074 C.3       1    LIG62    0.0000
     12 C10         3.4894    2.7870    2.2595 C.3       1    LIG62    0.0000
     13 C11         2.6158    2.1852    1.1889 C.ar      1    LIG62    0.0000
     14 C12         1.3806    1.6513    1.4576 C.ar      1    LIG62    0.0000
     15 C13         0.6184    1.0900    0.4246 C.ar      1    LIG62    0.0000
     16 C14         1.0959    1.0825   -0.8842 C.ar      1    LIG62    0.0000
     17 C15         2.3601    1.6401   -1.1623 C.ar      1    LIG62    0.0000
     18 C16         3.1101    2.1862   -0.1221 C.ar      1    LIG62    0.0000
     19 O3          4.3281    2.7233   -0.3812 O.3       1    LIG62    0.0000
     20 C17         2.8787    1.6410   -2.5409 C.ar      1    LIG62    0.0000
     21 O4          3.9688    2.1228   -2.7815 O.3       1    LIG62    0.0000
     22 C18         2.0712    1.0550   -3.6311 C.ar      1    LIG62    0.0000
     23 C19         2.5523    1.0509   -4.9363 C.ar      1    LIG62    0.0000
     24 C20         1.7910    0.5011   -5.9546 C.ar      1    LIG62    0.0000
     25 C21         0.5526   -0.0464   -5.6876 C.ar      1    LIG62    0.0000
     26 C22         0.0520   -0.0533   -4.3894 C.ar      1    LIG62    0.0000
     27 C23         0.8095    0.4981   -3.3514 C.ar      1    LIG62    0.0000
     28 C24         0.2913    0.4978   -1.9714 C.ar      1    LIG62    0.0000
     29 O5         -0.7991    0.0159   -1.7305 O.3       1    LIG62    0.0000
     30 O6         -1.1650   -0.5929   -4.1318 O.3       1    LIG62    0.0000
     31 C25        -1.8813   -1.1375   -5.2419 C.3       1    LIG62    0.0000
     32 O7         -0.5969    0.5546    0.7000 O.3       1    LIG62    0.0000
     33 C26         1.7213    4.2410    3.2149 C.2       1    LIG62    0.0000
     34 O8          1.3723    4.4587    2.0795 O.3       1    LIG62    0.0000
     35 C27         1.2083    5.1033    4.3394 C.3       1    LIG62    0.0000
     36 O9          3.5438    3.4741    4.5766 O.3       1    LIG62    0.0000
     37 O10        -1.7048   -1.5759    6.5963 O.3       1    LIG62    0.0000
     38 N1         -1.6602   -3.2675    4.3604 N.2       1    LIG62    0.0000
     39 H1          1.0045    1.0797    7.2083 H         1    LIG62    0.0000
     40 H2         -0.4403    0.1637    7.7856 H         1    LIG62    0.0000
     41 H3          1.1591   -0.6634    7.6527 H         1    LIG62    0.0000
     42 H4          1.1055   -0.3498    5.2315 H         1    LIG62    0.0000
     43 H5          0.1441   -2.4056    6.2048 H         1    LIG62    0.0000
     44 H6          0.0050   -2.1212    3.7565 H         1    LIG62    0.0000
     45 H7         -2.7041   -0.8267    4.3398 H         1    LIG62    0.0000
     46 H8         -2.0040   -1.1163    2.7328 H         1    LIG62    0.0000
     47 H9         -1.6573    1.2392    3.4881 H         1    LIG62    0.0000
     48 H10         0.0545    2.4300    2.9222 H         1    LIG62    0.0000
     49 H11         2.5357    0.9900    3.9383 H         1    LIG62    0.0000
     50 H12         1.4200    1.9873    4.8782 H         1    LIG62    0.0000
     51 H13         4.2749    2.0757    2.5146 H         1    LIG62    0.0000
     52 H14         3.9182    3.7115    1.8728 H         1    LIG62    0.0000
     53 H15         4.7036    3.0645    0.5152 H         1    LIG62    0.0000
     54 H16         4.3494    2.4675   -1.8886 H         1    LIG62    0.0000
     55 H17         3.5292    1.4807   -5.1579 H         1    LIG62    0.0000
     56 H18         2.1733    0.5009   -6.9754 H         1    LIG62    0.0000
     57 H19        -0.0365   -0.4757   -6.4980 H         1    LIG62    0.0000
     58 H20        -0.9585    0.1224   -0.7185 H         1    LIG62    0.0000
     59 H21        -2.8248   -1.5221   -4.8546 H         1    LIG62    0.0000
     60 H22        -2.0357   -0.3245   -5.9513 H         1    LIG62    0.0000
     61 H23        -1.2626   -1.9303   -5.6624 H         1    LIG62    0.0000
     62 H24        -0.7537    0.6681    1.7116 H         1    LIG62    0.0000
     63 H25         0.7338    5.2663    2.1103 H         1    LIG62    0.0000
     64 H26         0.5472    5.8470    3.8946 H         1    LIG62    0.0000
     65 H27         0.6751    4.4466    5.0268 H         1    LIG62    0.0000
     66 H28         2.0772    5.5633    4.8102 H         1    LIG62    0.0000
     67 H29         4.1708    2.6737    4.7413 H         1    LIG62    0.0000
     68 H30        -1.4088   -1.3314    7.5521 H         1    LIG62    0.0000
     69 H31        -1.9985   -3.6671    3.4734 H         1    LIG62    0.0000
     70 H32        -1.8551   -3.7492    5.2497 H         1    LIG62    0.0000
@<TRIPOS>BOND
     1    1    2 1
     2    1   39 1
     3    1   40 1
     4    1   41 1
     5    2    3 1
     6    2    7 1
     7    2   42 1
     8    3    4 1
     9    3   37 1
    10    3   43 1
    11    4    5 1
    12    4   38 1
    13    4   44 1
    14    5    6 1
    15    5   45 1
    16    5   46 1
    17    6    7 1
    18    6    8 1
    19    6   47 1
    20    8    9 1
    21    9   10 1
    22    9   14 1
    23    9   48 1
    24   10   11 1
    25   10   49 1
    26   10   50 1
    27   11   12 1
    28   11   33 1
    29   11   36 1
    30   12   13 1
    31   12   51 1
    32   12   52 1
    33   13   14 ar
    34   13   18 ar
    35   14   15 ar
    36   15   16 ar
    37   15   32 1
    38   16   17 ar
    39   16   28 ar
    40   17   18 ar
    41   17   20 ar
    42   18   19 1
    43   19   53 1
    44   20   21 1
    45   20   22 ar
    46   21   54 1
    47   22   23 ar
    48   22   27 ar
    49   23   24 ar
    50   23   55 1
    51   24   25 ar
    52   24   56 1
    53   25   26 ar
    54   25   57 1
    55   26   27 ar
    56   26   30 1
    57   27   28 ar
    58   28   29 1
    59   29   58 1
    60   30   31 1
    61   31   59 1
    62   31   60 1
    63   31   61 1
    64   32   62 1
    65   33   34 1
    66   33   35 1
    67   34   63 1
    68   35   64 1
    69   35   65 1
    70   35   66 1
    71   36   67 1
    72   37   68 1
    73   38   69 1
    74   38   70 1
@<TRIPOS>SUBSTRUCTURE
     1    LIG62    1   GROUP 1   LIG 1
@<TRIPOS>MOLECULE
ZINC00490791
   59    62    1     0     0
SMALL
USER_CHARGES


@<TRIPOS>ATOM
      1 C1         -0.0187    1.5258    0.0104 C.3       1    LIG47    0.0000
      2 C2          0.0021   -0.0041    0.0020 C.3       1    LIG47    0.0000
      3 C3          0.7074   -0.4901   -1.2379 C.2       1    LIG47    0.0000
      4 O1          1.1483    0.3055   -2.0332 O.3       1    LIG47    0.0000
      5 O2          0.8459   -1.8068   -1.4587 O.3       1    LIG47    0.0000
      6 C4          1.5252   -2.1962   -2.6541 C.3       1    LIG47    0.0000
      7 C5          3.0354   -2.3950   -2.3728 C.3       1    LIG47    0.0000
      8 C6          3.3694   -3.8547   -2.7849 C.3       1    LIG47    0.0000
      9 C7          2.2709   -4.1840   -3.8020 C.3       1    LIG47    0.0000
     10 C8          1.0194   -3.5538   -3.1309 C.3       1    LIG47    0.0000
     11 C9         -0.0861   -3.5374   -4.1692 C.3       1    LIG47    0.0000
     12 C10        -0.4251   -5.0008   -4.4934 C.3       1    LIG47    0.0000
     13 C11         0.7982   -5.7687   -4.9858 C.3       1    LIG47    0.0000
     14 C12         1.9908   -5.6604   -4.0149 C.3       1    LIG47    0.0000
     15 C13         3.2188   -6.3363   -4.6322 C.3       1    LIG47    0.0000
     16 C14         2.9479   -7.8357   -4.7733 C.3       1    LIG47    0.0000
     17 C15         1.6747   -8.0293   -5.5764 C.2       1    LIG47    0.0000
     18 C16         1.7057   -8.8993   -6.5858 C.2       1    LIG47    0.0000
     19 C17         0.5001   -9.1381   -7.3864 C.2       1    LIG47    0.0000
     20 O3          0.5586   -9.6016   -8.5062 O.3       1    LIG47    0.0000
     21 C18        -0.8232   -8.7757   -6.7410 C.3       1    LIG47    0.0000
     22 C19        -0.6877   -7.3586   -6.1858 C.3       1    LIG47    0.0000
     23 C20         0.4238   -7.2446   -5.1698 C.3       1    LIG47    0.0000
     24 C21        -0.0923   -7.7707   -3.8290 C.3       1    LIG47    0.0000
     25 C22         0.5944   -4.4002   -1.9293 C.3       1    LIG47    0.0000
     26 H1         -0.5355    1.8325    0.9198 H         1    LIG47    0.0000
     27 H2          1.0192    1.8587    0.0022 H         1    LIG47    0.0000
     28 H3         -0.5528    1.8422   -0.8855 H         1    LIG47    0.0000
     29 H4         -1.0163   -0.3925    0.0164 H         1    LIG47    0.0000
     30 H5          0.5410   -0.3648    0.8781 H         1    LIG47    0.0000
     31 H6          1.5831   -0.2375   -2.7928 H         1    LIG47    0.0000
     32 H7          1.3492   -1.4147   -3.3933 H         1    LIG47    0.0000
     33 H8          3.2612   -2.2242   -1.3202 H         1    LIG47    0.0000
     34 H9          3.6357   -1.6804   -2.9360 H         1    LIG47    0.0000
     35 H10         3.3881   -4.5474   -1.9435 H         1    LIG47    0.0000
     36 H11         4.3691   -3.9567   -3.2072 H         1    LIG47    0.0000
     37 H12         2.5536   -3.8197   -4.7897 H         1    LIG47    0.0000
     38 H13         0.2480   -3.0130   -5.0645 H         1    LIG47    0.0000
     39 H14        -0.9595   -3.0054   -3.7921 H         1    LIG47    0.0000
     40 H15        -1.1800   -5.0176   -5.2795 H         1    LIG47    0.0000
     41 H16        -0.7808   -5.4807   -3.5816 H         1    LIG47    0.0000
     42 H17         1.1078   -5.3264   -5.9327 H         1    LIG47    0.0000
     43 H18         1.7650   -6.1499   -3.0675 H         1    LIG47    0.0000
     44 H19         4.0857   -6.1794   -3.9904 H         1    LIG47    0.0000
     45 H20         3.4188   -5.9068   -5.6138 H         1    LIG47    0.0000
     46 H21         2.8367   -8.2912   -3.7893 H         1    LIG47    0.0000
     47 H22         3.7798   -8.3143   -5.2900 H         1    LIG47    0.0000
     48 H23         2.6274   -9.4335   -6.8164 H         1    LIG47    0.0000
     49 H24        -0.4084   -9.6726   -8.8536 H         1    LIG47    0.0000
     50 H25        -1.0572   -9.4785   -5.9414 H         1    LIG47    0.0000
     51 H26        -1.6316   -8.8306   -7.4701 H         1    LIG47    0.0000
     52 H27        -1.6227   -7.0872   -5.6957 H         1    LIG47    0.0000
     53 H28        -0.4461   -6.6927   -7.0142 H         1    LIG47    0.0000
     54 H29        -0.3534   -8.8186   -3.9770 H         1    LIG47    0.0000
     55 H30         0.7163   -7.6525   -3.1077 H         1    LIG47    0.0000
     56 H31        -0.9623   -7.1698   -3.5644 H         1    LIG47    0.0000
     57 H32         0.2428   -5.3549   -2.3204 H         1    LIG47    0.0000
     58 H33         1.4741   -4.5205   -1.2971 H         1    LIG47    0.0000
     59 H34        -0.1993   -3.8540   -1.4195 H         1    LIG47    0.0000
@<TRIPOS>BOND
     1    1    2 1
     2    1   26 1
     3    1   27 1
     4    1   28 1
     5    2    3 1
     6    2   29 1
     7    2   30 1
     8    3    4 1
     9    3    5 1
    10    4   31 1
    11    5    6 1
    12    6    7 1
    13    6   10 1
    14    6   32 1
    15    7    8 1
    16    7   33 1
    17    7   34 1
    18    8    9 1
    19    8   35 1
    20    8   36 1
    21    9   10 1
    22    9   14 1
    23    9   37 1
    24   10   11 1
    25   10   25 1
    26   11   12 1
    27   11   38 1
    28   11   39 1
    29   12   13 1
    30   12   40 1
    31   12   41 1
    32   13   14 1
    33   13   23 1
    34   13   42 1
    35   14   15 1
    36   14   43 1
    37   15   16 1
    38   15   44 1
    39   15   45 1
    40   16   17 1
    41   16   46 1
    42   16   47 1
    43   17   18 2
    44   17   23 1
    45   18   19 1
    46   18   48 1
    47   19   20 1
    48   19   21 1
    49   20   49 1
    50   21   22 1
    51   21   50 1
    52   21   51 1
    53   22   23 1
    54   22   52 1
    55   22   53 1
    56   23   24 1
    57   24   54 1
    58   24   55 1
    59   24   56 1
    60   25   57 1
    61   25   58 1
    62   25   59 1
@<TRIPOS>SUBSTRUCTURE
     1    LIG47    1   GROUP 1   LIG 1
@<TRIPOS>MOLECULE
ZINC03815424
   51    54    1     0     0
SMALL
USER_CHARGES


@<TRIPOS>ATOM
      1 C1         -0.0187    1.5258    0.0104 C.3       1    LIG10    0.0000
      2 C2          0.0021   -0.0041    0.0020 C.3       1    LIG10    0.0000
      3 C3         -1.4064   -0.5323    0.1772 C.3       1    LIG10    0.0000
      4 C4         -1.9756    0.0797    1.4714 C.3       1    LIG10    0.0000
      5 C5         -1.0851   -0.2532    2.6598 C.3       1    LIG10    0.0000
      6 C6         -1.6005    0.3571    3.9311 C.ar      1    LIG10    0.0000
      7 C7         -2.9742    0.4710    4.0964 C.ar      1    LIG10    0.0000
      8 C8         -3.5002    1.0150    5.2487 C.ar      1    LIG10    0.0000
      9 C9         -2.6480    1.4512    6.2530 C.ar      1    LIG10    0.0000
     10 C10        -1.2787    1.3413    6.0863 C.ar      1    LIG10    0.0000
     11 C11        -0.7495    0.7994    4.9225 C.ar      1    LIG10    0.0000
     12 C12         0.7502    0.7384    4.8002 C.3       1    LIG10    0.0000
     13 C13         1.1786   -0.1827    3.6588 C.3       1    LIG10    0.0000
     14 C14         0.3612    0.2021    2.4252 C.3       1    LIG10    0.0000
     15 C15         0.8604   -0.5199    1.1907 C.3       1    LIG10    0.0000
     16 C16         2.2767   -0.1707    0.7204 C.3       1    LIG10    0.0000
     17 C17         2.2489   -0.5546   -0.7844 C.3       1    LIG10    0.0000
     18 C18         0.7638   -0.4984   -1.2221 C.3       1    LIG10    0.0000
     19 C19         0.2945   -1.8392   -1.6079 C.2       1    LIG10    0.0000
     20 C20        -0.0798   -2.9086   -1.9155 C.3       1    LIG10    0.0000
     21 O1          0.6019    0.4156   -2.3086 O.3       1    LIG10    0.0000
     22 O2         -3.1559    1.9844    7.3952 O.3       1    LIG10    0.0000
     23 C21        -4.5790    2.0662    7.4962 C.3       1    LIG10    0.0000
     24 H1          1.0111    1.8592   -0.1179 H         1    LIG10    0.0000
     25 H2         -0.6528    1.8404   -0.8185 H         1    LIG10    0.0000
     26 H3         -0.4274    1.8337    0.9728 H         1    LIG10    0.0000
     27 H4         -1.3856   -1.6198    0.2481 H         1    LIG10    0.0000
     28 H5         -2.0206   -0.2700   -0.6842 H         1    LIG10    0.0000
     29 H6         -2.9721   -0.3225    1.6539 H         1    LIG10    0.0000
     30 H7         -2.0123    1.1636    1.3624 H         1    LIG10    0.0000
     31 H8         -1.1018   -1.3382    2.7623 H         1    LIG10    0.0000
     32 H9         -3.6432    0.1270    3.3076 H         1    LIG10    0.0000
     33 H10        -4.5799    1.1020    5.3702 H         1    LIG10    0.0000
     34 H11        -0.6094    1.6832    6.8758 H         1    LIG10    0.0000
     35 H12         1.1472    0.3404    5.7340 H         1    LIG10    0.0000
     36 H13         1.1231    1.7442    4.6068 H         1    LIG10    0.0000
     37 H14         1.0006   -1.2249    3.9238 H         1    LIG10    0.0000
     38 H15         2.2445   -0.0721    3.4597 H         1    LIG10    0.0000
     39 H16         0.4436    1.2783    2.2733 H         1    LIG10    0.0000
     40 H17         0.8172   -1.5771    1.4525 H         1    LIG10    0.0000
     41 H18         3.0427   -0.7081    1.2796 H         1    LIG10    0.0000
     42 H19         2.5343    0.8740    0.8946 H         1    LIG10    0.0000
     43 H20         2.6667   -1.5486   -0.9444 H         1    LIG10    0.0000
     44 H21         2.8553    0.1323   -1.3748 H         1    LIG10    0.0000
     45 H22        -0.1448   -2.9228   -3.0035 H         1    LIG10    0.0000
     46 H23         0.6553   -3.6226   -1.5442 H         1    LIG10    0.0000
     47 H24        -1.0547   -3.0513   -1.4494 H         1    LIG10    0.0000
     48 H25         0.9440    1.3317   -1.9850 H         1    LIG10    0.0000
     49 H26        -4.8046    2.5130    8.4645 H         1    LIG10    0.0000
     50 H27        -4.9216    2.6914    6.6717 H         1    LIG10    0.0000
     51 H28        -4.9629    1.0489    7.4201 H         1    LIG10    0.0000
@<TRIPOS>BOND
     1    1    2 1
     2    1   24 1
     3    1   25 1
     4    1   26 1
     5    2    3 1
     6    2   15 1
     7    2   18 1
     8    3    4 1
     9    3   27 1
    10    3   28 1
    11    4    5 1
    12    4   29 1
    13    4   30 1
    14    5    6 1
    15    5   14 1
    16    5   31 1
    17    6    7 ar
    18    6   11 ar
    19    7    8 ar
    20    7   32 1
    21    8    9 ar
    22    8   33 1
    23    9   10 ar
    24    9   22 1
    25   10   11 ar
    26   10   34 1
    27   11   12 1
    28   12   13 1
    29   12   35 1
    30   12   36 1
    31   13   14 1
    32   13   37 1
    33   13   38 1
    34   14   15 1
    35   14   39 1
    36   15   16 1
    37   15   40 1
    38   16   17 1
    39   16   41 1
    40   16   42 1
    41   17   18 1
    42   17   43 1
    43   17   44 1
    44   18   19 1
    45   18   21 1
    46   19   20 1
    47   20   45 1
    48   20   46 1
    49   20   47 1
    50   21   48 1
    51   22   23 1
    52   23   49 1
    53   23   50 1
    54   23   51 1
@<TRIPOS>SUBSTRUCTURE
     1    LIG10    1   GROUP 1   LIG 1
@<TRIPOS>MOLECULE
ZINC19418959
   52    55    1     0     0
SMALL
USER_CHARGES


@<TRIPOS>ATOM
      1 C1          0.4204    1.5427   -0.3194 C.3       1    LIG59    0.0000
      2 N1          0.3487    0.0771   -0.2504 N.3       1    LIG59    0.0000
      3 C2          0.9699   -0.5001   -1.4498 C.3       1    LIG59    0.0000
      4 C3          0.8787   -2.0264   -1.3873 C.3       1    LIG59    0.0000
      5 N2          1.5653   -2.5063   -0.1797 N.3       1    LIG59    0.0000
      6 C4          0.9701   -1.9172    1.0281 C.3       1    LIG59    0.0000
      7 C5          1.0605   -0.3919    0.9458 C.3       1    LIG59    0.0000
      8 C6          1.5488   -3.9737   -0.1128 C.3       1    LIG59    0.0000
      9 C7          2.4763   -4.4435    1.0097 C.3       1    LIG59    0.0000
     10 C8          2.4590   -5.9719    1.0794 C.3       1    LIG59    0.0000
     11 N3          3.3471   -6.4217    2.1542 N.pl3     1    LIG59    0.0000
     12 C9          2.7947   -6.5759    3.4230 C.ar      1    LIG59    0.0000
     13 C10         1.6439   -5.8634    3.7445 C.ar      1    LIG59    0.0000
     14 C11         1.0657   -5.9970    4.9923 C.ar      1    LIG59    0.0000
     15 C12         1.6269   -6.8403    5.9324 C.ar      1    LIG59    0.0000
     16 C13         2.7718   -7.5521    5.6246 C.ar      1    LIG59    0.0000
     17 C14         3.3588   -7.4215    4.3741 C.ar      1    LIG59    0.0000
     18 S1          4.8225   -8.3286    4.0036 S.3       1    LIG59    0.0000
     19 C15         5.4784   -7.5174    2.5843 C.ar      1    LIG59    0.0000
     20 C16         4.6781   -6.6680    1.8281 C.ar      1    LIG59    0.0000
     21 C17         5.2223   -6.0407    0.7125 C.ar      1    LIG59    0.0000
     22 C18         6.5389   -6.2664    0.3573 C.ar      1    LIG59    0.0000
     23 C19         7.3258   -7.1180    1.1085 C.ar      1    LIG59    0.0000
     24 C20         6.7996   -7.7356    2.2221 C.ar      1    LIG59    0.0000
     25 C21         7.1179   -5.5814   -0.8538 C.3       1    LIG59    0.0000
     26 F1          7.6743   -4.3552   -0.4745 F         1    LIG59    0.0000
     27 F2          8.1112   -6.3901   -1.4165 F         1    LIG59    0.0000
     28 F3          6.1057   -5.3632   -1.7946 F         1    LIG59    0.0000
     29 H1         -0.0495    1.9277    0.5856 H         1    LIG59    0.0000
     30 H2          1.4763    1.8080   -0.3720 H         1    LIG59    0.0000
     31 H3         -0.1189    1.8463   -1.2167 H         1    LIG59    0.0000
     32 H4          2.0177   -0.1998   -1.4605 H         1    LIG59    0.0000
     33 H5          0.4716   -0.1123   -2.3383 H         1    LIG59    0.0000
     34 H6          1.3292   -2.4844   -2.2679 H         1    LIG59    0.0000
     35 H7         -0.1673   -2.3256   -1.3197 H         1    LIG59    0.0000
     36 H8          1.5393   -2.2692    1.8885 H         1    LIG59    0.0000
     37 H9         -0.0650   -2.2460    1.1207 H         1    LIG59    0.0000
     38 H10         0.5747    0.0474    1.8171 H         1    LIG59    0.0000
     39 H11         2.0982   -0.0612    0.9029 H         1    LIG59    0.0000
     40 H12         1.9120   -4.3558   -1.0668 H         1    LIG59    0.0000
     41 H13         0.5275   -4.3176    0.0512 H         1    LIG59    0.0000
     42 H14         2.1343   -4.0325    1.9596 H         1    LIG59    0.0000
     43 H15         3.4914   -4.1003    0.8099 H         1    LIG59    0.0000
     44 H16         2.7790   -6.4142    0.1360 H         1    LIG59    0.0000
     45 H17         1.4512   -6.3124    1.3169 H         1    LIG59    0.0000
     46 H18         1.1960   -5.1962    3.0081 H         1    LIG59    0.0000
     47 H19         0.1639   -5.4354    5.2360 H         1    LIG59    0.0000
     48 H20         1.1676   -6.9442    6.9154 H         1    LIG59    0.0000
     49 H21         3.2142   -8.2174    6.3661 H         1    LIG59    0.0000
     50 H22         4.6074   -5.3676    0.1151 H         1    LIG59    0.0000
     51 H23         8.3611   -7.3010    0.8207 H         1    LIG59    0.0000
     52 H24         7.4241   -8.3985    2.8210 H         1    LIG59    0.0000
@<TRIPOS>BOND
     1    1    2 1
     2    1   29 1
     3    1   30 1
     4    1   31 1
     5    2    3 1
     6    2    7 1
     7    3    4 1
     8    3   32 1
     9    3   33 1
    10    4    5 1
    11    4   34 1
    12    4   35 1
    13    5    6 1
    14    5    8 1
    15    6    7 1
    16    6   36 1
    17    6   37 1
    18    7   38 1
    19    7   39 1
    20    8    9 1
    21    8   40 1
    22    8   41 1
    23    9   10 1
    24    9   42 1
    25    9   43 1
    26   10   11 1
    27   10   44 1
    28   10   45 1
    29   11   12 1
    30   11   20 1
    31   12   13 ar
    32   12   17 ar
    33   13   14 ar
    34   13   46 1
    35   14   15 ar
    36   14   47 1
    37   15   16 ar
    38   15   48 1
    39   16   17 ar
    40   16   49 1
    41   17   18 1
    42   18   19 1
    43   19   20 ar
    44   19   24 ar
    45   20   21 ar
    46   21   22 ar
    47   21   50 1
    48   22   23 ar
    49   22   25 1
    50   23   24 ar
    51   23   51 1
    52   24   52 1
    53   25   26 1
    54   25   27 1
    55   25   28 1
@<TRIPOS>SUBSTRUCTURE
     1    LIG59    1   GROUP 1   LIG 1
@<TRIPOS>MOLECULE
ZINC19364228
   64    67    1     0     0
SMALL
USER_CHARGES


@<TRIPOS>ATOM
      1 C1         -1.1934    2.6512   -0.4137 C.3       1    LIG68    0.0000
      2 C2         -1.1215    1.1351   -0.2203 C.3       1    LIG68    0.0000
      3 C3         -0.5204    0.8240    1.1519 C.3       1    LIG68    0.0000
      4 C4         -2.5294    0.5426   -0.3065 C.3       1    LIG68    0.0000
      5 C5         -0.2559    0.5320   -1.2964 C.ar      1    LIG68    0.0000
      6 C6         -0.7858   -0.4016   -2.1672 C.ar      1    LIG68    0.0000
      7 C7          0.0082   -0.9549   -3.1543 C.ar      1    LIG68    0.0000
      8 C8          1.3320   -0.5743   -3.2708 C.ar      1    LIG68    0.0000
      9 C9          1.8617    0.3600   -2.4005 C.ar      1    LIG68    0.0000
     10 C10         1.0665    0.9164   -1.4161 C.ar      1    LIG68    0.0000
     11 C11         2.1979   -1.1782   -4.3463 C.3       1    LIG68    0.0000
     12 N1          2.1109   -0.3589   -5.5625 N.3       1    LIG68    0.0000
     13 C12         0.7410   -0.4099   -6.0899 C.3       1    LIG68    0.0000
     14 C13         0.6453    0.4585   -7.3463 C.3       1    LIG68    0.0000
     15 N2          1.5951   -0.0354   -8.3533 N.3       1    LIG68    0.0000
     16 C14         2.9685   -0.0137   -7.8304 C.3       1    LIG68    0.0000
     17 C15         3.0451   -0.8782   -6.5701 C.3       1    LIG68    0.0000
     18 C16         1.4932    0.7388   -9.5975 C.3       1    LIG68    0.0000
     19 C17         0.0860    0.6512  -10.1298 C.ar      1    LIG68    0.0000
     20 C18        -0.5675   -0.5665  -10.1586 C.ar      1    LIG68    0.0000
     21 C19        -1.8583   -0.6468  -10.6468 C.ar      1    LIG68    0.0000
     22 C20        -2.4957    0.4907  -11.1058 C.ar      1    LIG68    0.0000
     23 C21        -1.8424    1.7086  -11.0762 C.ar      1    LIG68    0.0000
     24 C22        -0.5532    1.7896  -10.5840 C.ar      1    LIG68    0.0000
     25 C23         2.4516    0.1794  -10.6171 C.ar      1    LIG68    0.0000
     26 C24         2.5596   -1.1883  -10.7865 C.ar      1    LIG68    0.0000
     27 C25         3.4385   -1.7019  -11.7215 C.ar      1    LIG68    0.0000
     28 C26         4.2102   -0.8468  -12.4880 C.ar      1    LIG68    0.0000
     29 C27         4.1017    0.5219  -12.3180 C.ar      1    LIG68    0.0000
     30 C28         3.2184    1.0345  -11.3866 C.ar      1    LIG68    0.0000
     31 Cl1         5.3147   -1.4912  -13.6621 Cl        1    LIG68    0.0000
     32 H1         -1.6254    2.8267   -1.3989 H         1    LIG68    0.0000
     33 H2         -1.8261    3.0443    0.3821 H         1    LIG68    0.0000
     34 H3         -0.1736    3.0299   -0.3451 H         1    LIG68    0.0000
     35 H4         -0.4880   -0.2614    1.2470 H         1    LIG68    0.0000
     36 H5          0.4774    1.2623    1.1695 H         1    LIG68    0.0000
     37 H6         -1.1750    1.2767    1.8966 H         1    LIG68    0.0000
     38 H7         -2.4315   -0.5336   -0.1639 H         1    LIG68    0.0000
     39 H8         -3.1186    1.0044    0.4858 H         1    LIG68    0.0000
     40 H9         -2.9179    0.7867   -1.2952 H         1    LIG68    0.0000
     41 H10        -1.8297   -0.7015   -2.0755 H         1    LIG68    0.0000
     42 H11        -0.4096   -1.6913   -3.8408 H         1    LIG68    0.0000
     43 H12         2.9063    0.6580   -2.4905 H         1    LIG68    0.0000
     44 H13         1.4822    1.6583   -0.7343 H         1    LIG68    0.0000
     45 H14         1.8757   -2.1952   -4.5699 H         1    LIG68    0.0000
     46 H15         3.2354   -1.1909   -4.0125 H         1    LIG68    0.0000
     47 H16         0.0736   -0.0143   -5.3243 H         1    LIG68    0.0000
     48 H17         0.4740   -1.4445   -6.3055 H         1    LIG68    0.0000
     49 H18         0.8642    1.5023   -7.1213 H         1    LIG68    0.0000
     50 H19        -0.3579    0.3820   -7.7655 H         1    LIG68    0.0000
     51 H20         3.2155    1.0178   -7.5792 H         1    LIG68    0.0000
     52 H21         3.6550   -0.3732   -8.5969 H         1    LIG68    0.0000
     53 H22         2.7436   -1.8976   -6.8110 H         1    LIG68    0.0000
     54 H23         4.0545   -0.8854   -6.1588 H         1    LIG68    0.0000
     55 H24         1.7421    1.7811   -9.3983 H         1    LIG68    0.0000
     56 H25        -0.0650   -1.4634   -9.7964 H         1    LIG68    0.0000
     57 H26        -2.3735   -1.6071  -10.6698 H         1    LIG68    0.0000
     58 H27        -3.5134    0.4273  -11.4910 H         1    LIG68    0.0000
     59 H28        -2.3438    2.6050  -11.4410 H         1    LIG68    0.0000
     60 H29        -0.0407    2.7511  -10.5540 H         1    LIG68    0.0000
     61 H30         1.9515   -1.8618  -10.1826 H         1    LIG68    0.0000
     62 H31         3.5236   -2.7803  -11.8549 H         1    LIG68    0.0000
     63 H32         4.7127    1.1959  -12.9185 H         1    LIG68    0.0000
     64 H33         3.1264    2.1131  -11.2588 H         1    LIG68    0.0000
@<TRIPOS>BOND
     1    1    2 1
     2    1   32 1
     3    1   33 1
     4    1   34 1
     5    2    3 1
     6    2    4 1
     7    2    5 1
     8    3   35 1
     9    3   36 1
    10    3   37 1
    11    4   38 1
    12    4   39 1
    13    4   40 1
    14    5    6 ar
    15    5   10 ar
    16    6    7 ar
    17    6   41 1
    18    7    8 ar
    19    7   42 1
    20    8    9 ar
    21    8   11 1
    22    9   10 ar
    23    9   43 1
    24   10   44 1
    25   11   12 1
    26   11   45 1
    27   11   46 1
    28   12   13 1
    29   12   17 1
    30   13   14 1
    31   13   47 1
    32   13   48 1
    33   14   15 1
    34   14   49 1
    35   14   50 1
    36   15   16 1
    37   15   18 1
    38   16   17 1
    39   16   51 1
    40   16   52 1
    41   17   53 1
    42   17   54 1
    43   18   19 1
    44   18   25 1
    45   18   55 1
    46   19   20 ar
    47   19   24 ar
    48   20   21 ar
    49   20   56 1
    50   21   22 ar
    51   21   57 1
    52   22   23 ar
    53   22   58 1
    54   23   24 ar
    55   23   59 1
    56   24   60 1
    57   25   26 ar
    58   25   30 ar
    59   26   27 ar
    60   26   61 1
    61   27   28 ar
    62   27   62 1
    63   28   29 ar
    64   28   31 1
    65   29   30 ar
    66   29   63 1
    67   30   64 1
@<TRIPOS>SUBSTRUCTURE
     1    LIG68    1   GROUP 1   LIG 1
@<TRIPOS>MOLECULE
ZINC00897089
   42    44    1     0     0
SMALL
USER_CHARGES


@<TRIPOS>ATOM
      1 C1         -0.0168    1.3889    0.0097 C.ar      1    LIG24    0.0000
      2 C2          1.1424    2.1034    0.0024 C.ar      1    LIG24    0.0000
      3 C3          2.3733    1.4284   -0.0129 C.ar      1    LIG24    0.0000
      4 C4          3.5939    2.1297   -0.0202 C.ar      1    LIG24    0.0000
      5 C5          4.7524    1.4066   -0.0348 C.ar      1    LIG24    0.0000
      6 C6          4.7030    0.0141   -0.0421 C.ar      1    LIG24    0.0000
      7 N1          3.5646   -0.6358   -0.0352 N.ar      1    LIG24    0.0000
      8 C7          2.3949    0.0115   -0.0208 C.ar      1    LIG24    0.0000
      9 C8          1.1773   -0.6905   -0.0134 C.ar      1    LIG24    0.0000
     10 C9          0.0021   -0.0041    0.0020 C.ar      1    LIG24    0.0000
     11 C10         1.1730   -2.1975   -0.0224 C.3       1    LIG24    0.0000
     12 F1         -0.1473   -2.6601   -0.0125 F         1    LIG24    0.0000
     13 F2          1.8201   -2.6588   -1.1737 F         1    LIG24    0.0000
     14 F3          1.8420   -2.6725    1.1107 F         1    LIG24    0.0000
     15 C11         5.9925   -0.7655   -0.0587 C.3       1    LIG24    0.0000
     16 F4          6.4042   -1.0140    1.2550 F         1    LIG24    0.0000
     17 F5          5.7943   -1.9806   -0.7231 F         1    LIG24    0.0000
     18 F6          6.9762   -0.0255   -0.7236 F         1    LIG24    0.0000
     19 C12         3.6215    3.6365   -0.0127 C.3       1    LIG24    0.0000
     20 C13         3.4922    4.1561   -1.4459 C.3       1    LIG24    0.0000
     21 C14         4.7199    3.7312   -2.2545 C.3       1    LIG24    0.0000
     22 C15         4.5859    4.2532   -3.6879 C.3       1    LIG24    0.0000
     23 C16         4.4122    5.7743   -3.6527 C.3       1    LIG24    0.0000
     24 C17         3.1960    6.1235   -2.7923 C.3       1    LIG24    0.0000
     25 N2          3.3974    5.6207   -1.4280 N.3       1    LIG24    0.0000
     26 O1          4.8561    4.0875    0.5480 O.3       1    LIG24    0.0000
     27 H1         -0.9720    1.9138    0.0217 H         1    LIG24    0.0000
     28 H2          1.1148    3.1930    0.0084 H         1    LIG24    0.0000
     29 H3          5.7148    1.9183   -0.0407 H         1    LIG24    0.0000
     30 H4         -0.9395   -0.5532    0.0084 H         1    LIG24    0.0000
     31 H5          2.7918    4.0121    0.5861 H         1    LIG24    0.0000
     32 H6          2.5950    3.7408   -1.9048 H         1    LIG24    0.0000
     33 H7          4.7899    2.6435   -2.2669 H         1    LIG24    0.0000
     34 H8          5.6192    4.1441   -1.7974 H         1    LIG24    0.0000
     35 H9          3.7192    3.7960   -4.1652 H         1    LIG24    0.0000
     36 H10         5.4809    3.9993   -4.2559 H         1    LIG24    0.0000
     37 H11         4.2630    6.1490   -4.6653 H         1    LIG24    0.0000
     38 H12         5.3041    6.2341   -3.2271 H         1    LIG24    0.0000
     39 H13         2.2850    5.6909   -3.2059 H         1    LIG24    0.0000
     40 H14         3.0929    7.2071   -2.7353 H         1    LIG24    0.0000
     41 H15         4.2696    6.0134   -1.0459 H         1    LIG24    0.0000
     42 H16         4.9036    3.7178    1.5082 H         1    LIG24    0.0000
@<TRIPOS>BOND
     1    1    2 ar
     2    1   10 ar
     3    1   27 1
     4    2    3 ar
     5    2   28 1
     6    3    4 ar
     7    3    8 ar
     8    4    5 ar
     9    4   19 1
    10    5    6 ar
    11    5   29 1
    12    6    7 ar
    13    6   15 1
    14    7    8 ar
    15    8    9 ar
    16    9   10 ar
    17    9   11 1
    18   10   30 1
    19   11   12 1
    20   11   13 1
    21   11   14 1
    22   15   16 1
    23   15   17 1
    24   15   18 1
    25   19   20 1
    26   19   26 1
    27   19   31 1
    28   20   21 1
    29   20   25 1
    30   20   32 1
    31   21   22 1
    32   21   33 1
    33   21   34 1
    34   22   23 1
    35   22   35 1
    36   22   36 1
    37   23   24 1
    38   23   37 1
    39   23   38 1
    40   24   25 1
    41   24   39 1
    42   24   40 1
    43   25   41 1
    44   26   42 1
@<TRIPOS>SUBSTRUCTURE
     1    LIG24    1   GROUP 1   LIG 1
@<TRIPOS>MOLECULE
ZINC03918087
   71    75    1     0     0
SMALL
USER_CHARGES


@<TRIPOS>ATOM
      1 C1          0.5150    0.0942    7.2444 C.3       1    LIG63    0.0000
      2 C2          0.1900   -0.3014    5.8026 C.3       1    LIG63    0.0000
      3 C3         -0.5085   -1.6636    5.7921 C.3       1    LIG63    0.0000
      4 C4         -0.8843   -2.0248    4.3517 C.3       1    LIG63    0.0000
      5 C5         -1.7663   -0.9147    3.7721 C.3       1    LIG63    0.0000
      6 C6         -1.0192    0.4186    3.8607 C.3       1    LIG63    0.0000
      7 O1         -0.6723    0.6792    5.2222 O.3       1    LIG63    0.0000
      8 O2          0.1696    0.3521    3.0704 O.3       1    LIG63    0.0000
      9 C7          0.7875    1.6202    2.8423 C.3       1    LIG63    0.0000
     10 C8          1.8713    1.8482    3.8936 C.3       1    LIG63    0.0000
     11 C9          2.6612    3.1042    3.5067 C.3       1    LIG63    0.0000
     12 C10         3.4811    2.7902    2.2574 C.3       1    LIG63    0.0000
     13 C11         2.6090    2.1869    1.1864 C.ar      1    LIG63    0.0000
     14 C12         1.3765    1.6468    1.4552 C.ar      1    LIG63    0.0000
     15 C13         0.6155    1.0847    0.4217 C.ar      1    LIG63    0.0000
     16 C14         1.0919    1.0819   -0.8875 C.ar      1    LIG63    0.0000
     17 C15         2.3535    1.6455   -1.1656 C.ar      1    LIG63    0.0000
     18 C16         3.1021    2.1926   -0.1251 C.ar      1    LIG63    0.0000
     19 O3          4.3175    2.7354   -0.3842 O.3       1    LIG63    0.0000
     20 C17         2.8707    1.6513   -2.5448 C.ar      1    LIG63    0.0000
     21 O4          3.9582    2.1389   -2.7855 O.3       1    LIG63    0.0000
     22 C18         2.0646    1.0643   -3.6354 C.ar      1    LIG63    0.0000
     23 C19         2.5444    1.0651   -4.9411 C.ar      1    LIG63    0.0000
     24 C20         1.7841    0.5148   -5.9600 C.ar      1    LIG63    0.0000
     25 C21         0.5481   -0.0381   -5.6929 C.ar      1    LIG63    0.0000
     26 C22         0.0493   -0.0508   -4.3941 C.ar      1    LIG63    0.0000
     27 C23         0.8055    0.5015   -3.3556 C.ar      1    LIG63    0.0000
     28 C24         0.2887    0.4960   -1.9751 C.ar      1    LIG63    0.0000
     29 O5         -0.7994    0.0089   -1.7342 O.3       1    LIG63    0.0000
     30 O6         -1.1652   -0.5961   -4.1364 O.3       1    LIG63    0.0000
     31 C25        -1.8803   -1.1413   -5.2470 C.3       1    LIG63    0.0000
     32 O7         -0.5973    0.5440    0.6972 O.3       1    LIG63    0.0000
     33 C26         1.7077    4.2347    3.2174 C.2       1    LIG63    0.0000
     34 O8          1.3555    4.4523    2.0830 O.3       1    LIG63    0.0000
     35 C27         1.1935    5.0937    4.3439 C.3       1    LIG63    0.0000
     36 O9          0.3120    6.0889    3.8199 O.3       1    LIG63    0.0000
     37 O10         3.5348    3.4728    4.5758 O.3       1    LIG63    0.0000
     38 O11        -1.6907   -1.6002    6.5925 O.3       1    LIG63    0.0000
     39 N1         -1.6423   -3.2885    4.3540 N.2       1    LIG63    0.0000
     40 H1          1.0089    1.0651    7.2049 H         1    LIG63    0.0000
     41 H2         -0.4316    0.1427    7.7827 H         1    LIG63    0.0000
     42 H3          1.1708   -0.6780    7.6466 H         1    LIG63    0.0000
     43 H4          1.1130   -0.3613    5.2260 H         1    LIG63    0.0000
     44 H5          0.1609   -2.4222    6.1977 H         1    LIG63    0.0000
     45 H6          0.0179   -2.1348    3.7500 H         1    LIG63    0.0000
     46 H7         -2.6957   -0.8519    4.3382 H         1    LIG63    0.0000
     47 H8         -1.9963   -1.1365    2.7300 H         1    LIG63    0.0000
     48 H9         -1.6582    1.2193    3.4883 H         1    LIG63    0.0000
     49 H10         0.0483    2.4173    2.9222 H         1    LIG63    0.0000
     50 H11         2.5366    0.9857    3.9333 H         1    LIG63    0.0000
     51 H12         1.4176    1.9763    4.8764 H         1    LIG63    0.0000
     52 H13         4.2698    2.0817    2.5103 H         1    LIG63    0.0000
     53 H14         3.9057    3.7173    1.8722 H         1    LIG63    0.0000
     54 H15         4.6923    3.0765    0.5125 H         1    LIG63    0.0000
     55 H16         4.3379    2.4838   -1.8923 H         1    LIG63    0.0000
     56 H17         3.5194    1.4991   -5.1627 H         1    LIG63    0.0000
     57 H18         2.1652    0.5185   -6.9812 H         1    LIG63    0.0000
     58 H19        -0.0405   -0.4671   -6.5038 H         1    LIG63    0.0000
     59 H20        -0.9583    0.1126   -0.7218 H         1    LIG63    0.0000
     60 H21        -2.8218   -1.5307   -4.8597 H         1    LIG63    0.0000
     61 H22        -2.0389   -0.3274   -5.9545 H         1    LIG63    0.0000
     62 H23        -1.2587   -1.9305   -5.6699 H         1    LIG63    0.0000
     63 H24        -0.7535    0.6547    1.7092 H         1    LIG63    0.0000
     64 H25         0.7138    5.2573    2.1161 H         1    LIG63    0.0000
     65 H26         2.0068    5.5788    4.8837 H         1    LIG63    0.0000
     66 H27         0.6159    4.4782    5.0336 H         1    LIG63    0.0000
     67 H28        -0.0154    6.6516    4.6181 H         1    LIG63    0.0000
     68 H29         4.1654    2.6747    4.7382 H         1    LIG63    0.0000
     69 H30        -1.3945   -1.3559    7.5483 H         1    LIG63    0.0000
     70 H31        -1.9800   -3.6881    3.4668 H         1    LIG63    0.0000
     71 H32        -1.8344   -3.7722    5.2428 H         1    LIG63    0.0000
@<TRIPOS>BOND
     1    1    2 1
     2    1   40 1
     3    1   41 1
     4    1   42 1
     5    2    3 1
     6    2    7 1
     7    2   43 1
     8    3    4 1
     9    3   38 1
    10    3   44 1
    11    4    5 1
    12    4   39 1
    13    4   45 1
    14    5    6 1
    15    5   46 1
    16    5   47 1
    17    6    7 1
    18    6    8 1
    19    6   48 1
    20    8    9 1
    21    9   10 1
    22    9   14 1
    23    9   49 1
    24   10   11 1
    25   10   50 1
    26   10   51 1
    27   11   12 1
    28   11   33 1
    29   11   37 1
    30   12   13 1
    31   12   52 1
    32   12   53 1
    33   13   14 ar
    34   13   18 ar
    35   14   15 ar
    36   15   16 ar
    37   15   32 1
    38   16   17 ar
    39   16   28 ar
    40   17   18 ar
    41   17   20 ar
    42   18   19 1
    43   19   54 1
    44   20   21 1
    45   20   22 ar
    46   21   55 1
    47   22   23 ar
    48   22   27 ar
    49   23   24 ar
    50   23   56 1
    51   24   25 ar
    52   24   57 1
    53   25   26 ar
    54   25   58 1
    55   26   27 ar
    56   26   30 1
    57   27   28 ar
    58   28   29 1
    59   29   59 1
    60   30   31 1
    61   31   60 1
    62   31   61 1
    63   31   62 1
    64   32   63 1
    65   33   34 1
    66   33   35 1
    67   34   64 1
    68   35   36 1
    69   35   65 1
    70   35   66 1
    71   36   67 1
    72   37   68 1
    73   38   69 1
    74   39   70 1
    75   39   71 1
@<TRIPOS>SUBSTRUCTURE
     1    LIG63    1   GROUP 1   LIG 1
@<TRIPOS>MOLECULE
ZINC03973334
   49    52    1     0     0
SMALL
USER_CHARGES


@<TRIPOS>ATOM
      1 C1         -0.0187    1.5258    0.0104 C.3       1    LIG71    0.0000
      2 C2          0.0021   -0.0041    0.0020 C.3       1    LIG71    0.0000
      3 C3         -1.4161   -0.5359    0.0796 C.3       1    LIG71    0.0000
      4 C4         -2.0735    0.1111    1.3078 C.3       1    LIG71    0.0000
      5 C5         -1.2952   -0.1749    2.5894 C.3       1    LIG71    0.0000
      6 C6          0.1807    0.2348    2.4666 C.3       1    LIG71    0.0000
      7 C7          0.7516   -0.5249    1.2573 C.3       1    LIG71    0.0000
      8 C8          2.2046   -0.1882    0.8977 C.3       1    LIG71    0.0000
      9 C9          2.2728   -0.5571   -0.6094 C.3       1    LIG71    0.0000
     10 C10         0.8440   -0.4931   -1.1394 C.2       1    LIG71    0.0000
     11 O1          0.4675   -0.7776   -2.2509 O.3       1    LIG71    0.0000
     12 C11         0.9409   -0.1701    3.7352 C.3       1    LIG71    0.0000
     13 C12         0.2808    0.4850    4.9321 C.2       1    LIG71    0.0000
     14 C13         0.9879    1.1194    5.8704 C.3       1    LIG71    0.0000
     15 C14        -1.1899    0.3797    4.9991 C.2       1    LIG71    0.0000
     16 C15        -1.7902    0.0847    6.1666 C.2       1    LIG71    0.0000
     17 C16        -3.2428   -0.0865    6.2205 C.2       1    LIG71    0.0000
     18 O2         -3.8065   -0.2932    7.2804 O.3       1    LIG71    0.0000
     19 C17        -4.0082   -0.0037    4.9642 C.2       1    LIG71    0.0000
     20 C18        -3.4010    0.3123    3.8319 C.2       1    LIG71    0.0000
     21 C19        -1.9257    0.6191    3.7375 C.3       1    LIG71    0.0000
     22 C20        -1.7835    2.1062    3.4072 C.3       1    LIG71    0.0000
     23 H1          1.0176    1.8589   -0.0466 H         1    LIG71    0.0000
     24 H2         -0.5943    1.8415   -0.8598 H         1    LIG71    0.0000
     25 H3         -0.4924    1.8330    0.9428 H         1    LIG71    0.0000
     26 H4         -1.4060   -1.6216    0.1755 H         1    LIG71    0.0000
     27 H5         -1.9660   -0.3004   -0.8316 H         1    LIG71    0.0000
     28 H6         -3.0770   -0.2996    1.4194 H         1    LIG71    0.0000
     29 H7         -2.0889    1.1906    1.1574 H         1    LIG71    0.0000
     30 H8         -1.3382   -1.2478    2.7769 H         1    LIG71    0.0000
     31 H9          0.2791    1.3129    2.3393 H         1    LIG71    0.0000
     32 H10         0.6581   -1.5797    1.5157 H         1    LIG71    0.0000
     33 H11         2.9242   -0.7377    1.5045 H         1    LIG71    0.0000
     34 H12         2.4656    0.8499    1.1036 H         1    LIG71    0.0000
     35 H13         2.7000   -1.5483   -0.7615 H         1    LIG71    0.0000
     36 H14         2.9076    0.1428   -1.1528 H         1    LIG71    0.0000
     37 H15         1.2976   -1.0753   -2.7831 H         1    LIG71    0.0000
     38 H16         1.9816    0.1470    3.6686 H         1    LIG71    0.0000
     39 H17         0.9094   -1.2531    3.8541 H         1    LIG71    0.0000
     40 H18         0.2768    1.4927    6.6074 H         1    LIG71    0.0000
     41 H19         1.6726    0.3891    6.3016 H         1    LIG71    0.0000
     42 H20         1.5205    1.9306    5.3740 H         1    LIG71    0.0000
     43 H21        -1.1945   -0.0268    7.0726 H         1    LIG71    0.0000
     44 H22        -4.8121   -0.3793    7.0749 H         1    LIG71    0.0000
     45 H23        -5.0797   -0.2037    4.9676 H         1    LIG71    0.0000
     46 H24        -3.9967    0.3533    2.9200 H         1    LIG71    0.0000
     47 H25        -2.2351    2.6601    4.2302 H         1    LIG71    0.0000
     48 H26        -0.7169    2.3121    3.3172 H         1    LIG71    0.0000
     49 H27        -2.3096    2.2757    2.4677 H         1    LIG71    0.0000
@<TRIPOS>BOND
     1    1    2 1
     2    1   23 1
     3    1   24 1
     4    1   25 1
     5    2    3 1
     6    2    7 1
     7    2   10 1
     8    3    4 1
     9    3   26 1
    10    3   27 1
    11    4    5 1
    12    4   28 1
    13    4   29 1
    14    5    6 1
    15    5   21 1
    16    5   30 1
    17    6    7 1
    18    6   12 1
    19    6   31 1
    20    7    8 1
    21    7   32 1
    22    8    9 1
    23    8   33 1
    24    8   34 1
    25    9   10 1
    26    9   35 1
    27    9   36 1
    28   10   11 1
    29   11   37 1
    30   12   13 1
    31   12   38 1
    32   12   39 1
    33   13   14 1
    34   13   15 1
    35   14   40 1
    36   14   41 1
    37   14   42 1
    38   15   16 2
    39   15   21 1
    40   16   17 1
    41   16   43 1
    42   17   18 1
    43   17   19 1
    44   18   44 1
    45   19   20 2
    46   19   45 1
    47   20   21 1
    48   20   46 1
    49   21   22 1
    50   22   47 1
    51   22   48 1
    52   22   49 1
@<TRIPOS>SUBSTRUCTURE
     1    LIG71    1   GROUP 1   LIG 1
@<TRIPOS>MOLECULE
ZINC03873936
   67    71    1     0     0
SMALL
USER_CHARGES


@<TRIPOS>ATOM
      1 C1          6.1690    0.6138   -0.7308 C.3       1     LIG7    0.0000
      2 C2          4.8123    0.0880   -0.2578 C.3       1     LIG7    0.0000
      3 C3          4.5306    0.6021    1.1554 C.3       1     LIG7    0.0000
      4 C4          2.4581   -0.0236   -0.8148 C.3       1     LIG7    0.0000
      5 C5          1.4073    0.4270   -1.8323 C.3       1     LIG7    0.0000
      6 N1          1.3389    1.8949   -1.8445 N.3       1     LIG7    0.0000
      7 C6          2.6411    2.4770   -2.1985 C.3       1     LIG7    0.0000
      8 C7          3.6918    2.0264   -1.1810 C.3       1     LIG7    0.0000
      9 C8          0.3367    2.3431   -2.7123 C.ar      1     LIG7    0.0000
     10 C9         -0.4276    1.4271   -3.4228 C.ar      1     LIG7    0.0000
     11 C10        -1.4210    1.8700   -4.2740 C.ar      1     LIG7    0.0000
     12 C11        -1.6467    3.2298   -4.4289 C.ar      1     LIG7    0.0000
     13 C12        -0.8795    4.1456   -3.7242 C.ar      1     LIG7    0.0000
     14 C13         0.1098    3.7042   -2.8676 C.ar      1     LIG7    0.0000
     15 O1         -2.6210    3.6653   -5.2719 O.3       1     LIG7    0.0000
     16 C14        -3.3725    2.6672   -5.9655 C.3       1     LIG7    0.0000
     17 C15        -4.4141    3.3428   -6.8598 C.3       1     LIG7    0.0000
     18 C16        -5.2445    2.2849   -7.6285 C.3       1     LIG7    0.0000
     19 O2         -6.4825    2.9975   -7.8647 O.3       1     LIG7    0.0000
     20 C17        -6.6787    3.7946   -6.6846 C.3       1     LIG7    0.0000
     21 O3         -5.4066    4.0209   -6.0634 O.3       1     LIG7    0.0000
     22 C18        -7.6012    3.0559   -5.7129 C.3       1     LIG7    0.0000
     23 N2         -7.8493    3.8975   -4.5397 N.pl3     1     LIG7    0.0000
     24 C19        -9.0447    4.3016   -4.0764 C.ar      1     LIG7    0.0000
     25 N3         -8.8409    5.0357   -3.0128 N.ar      1     LIG7    0.0000
     26 C20        -7.5341    5.1225   -2.7672 C.ar      1     LIG7    0.0000
     27 N4         -6.8858    4.4374   -3.6721 N.ar      1     LIG7    0.0000
     28 C21        -7.2995    5.1147   -7.0627 C.ar      1     LIG7    0.0000
     29 C22        -6.7207    6.2969   -6.6401 C.ar      1     LIG7    0.0000
     30 C23        -7.2892    7.5078   -6.9868 C.ar      1     LIG7    0.0000
     31 C24        -8.4383    7.5377   -7.7573 C.ar      1     LIG7    0.0000
     32 C25        -9.0178    6.3553   -8.1805 C.ar      1     LIG7    0.0000
     33 C26        -8.4452    5.1434   -7.8375 C.ar      1     LIG7    0.0000
     34 Cl1        -9.1681    3.6590   -8.3737 Cl        1     LIG7    0.0000
     35 Cl2        -9.1526    9.0590   -8.1923 Cl        1     LIG7    0.0000
     36 N5          3.7662    0.5503   -1.1948 N.3       1     LIG7    0.0000
     37 H1          6.3283    0.2252   -1.7366 H         1     LIG7    0.0000
     38 H2          6.1098    1.7022   -0.7216 H         1     LIG7    0.0000
     39 H3          6.9166    0.2427   -0.0298 H         1     LIG7    0.0000
     40 H4          4.8177   -1.0018   -0.2367 H         1     LIG7    0.0000
     41 H5          3.5594    0.2054    1.4511 H         1     LIG7    0.0000
     42 H6          5.3316    0.2313    1.7950 H         1     LIG7    0.0000
     43 H7          4.5248    1.6908    1.1032 H         1     LIG7    0.0000
     44 H8          2.5296   -1.1106   -0.7764 H         1     LIG7    0.0000
     45 H9          2.1944    0.3464    0.1760 H         1     LIG7    0.0000
     46 H10         0.4254    0.0194   -1.5916 H         1     LIG7    0.0000
     47 H11         1.7012    0.0969   -2.8287 H         1     LIG7    0.0000
     48 H12         2.5437    3.5621   -2.1640 H         1     LIG7    0.0000
     49 H13         2.9137    2.1705   -3.2084 H         1     LIG7    0.0000
     50 H14         3.4441    2.3737   -0.1779 H         1     LIG7    0.0000
     51 H15         4.6682    2.4231   -1.4591 H         1     LIG7    0.0000
     52 H16        -0.2436    0.3588   -3.3088 H         1     LIG7    0.0000
     53 H17        -2.0278    1.1508   -4.8242 H         1     LIG7    0.0000
     54 H18        -1.0575    5.2140   -3.8465 H         1     LIG7    0.0000
     55 H19         0.7123    4.4240   -2.3136 H         1     LIG7    0.0000
     56 H20        -3.8802    2.0717   -5.2068 H         1     LIG7    0.0000
     57 H21        -2.6917    2.0311   -6.5311 H         1     LIG7    0.0000
     58 H22        -3.8576    4.0125   -7.5155 H         1     LIG7    0.0000
     59 H23        -5.3854    1.3285   -7.1250 H         1     LIG7    0.0000
     60 H24        -4.7869    1.9753   -8.5681 H         1     LIG7    0.0000
     61 H25        -7.1634    2.1100   -5.3941 H         1     LIG7    0.0000
     62 H26        -8.5602    2.8680   -6.1957 H         1     LIG7    0.0000
     63 H27       -10.0146    4.0598   -4.5110 H         1     LIG7    0.0000
     64 H28        -7.0795    5.6752   -1.9450 H         1     LIG7    0.0000
     65 H29        -5.8156    6.2739   -6.0332 H         1     LIG7    0.0000
     66 H30        -6.8324    8.4396   -6.6533 H         1     LIG7    0.0000
     67 H31        -9.9252    6.3782   -8.7840 H         1     LIG7    0.0000
@<TRIPOS>BOND
     1    1    2 1
     2    1   37 1
     3    1   38 1
     4    1   39 1
     5    2    3 1
     6    2   36 1
     7    2   40 1
     8    3   41 1
     9    3   42 1
    10    3   43 1
    11    4    5 1
    12    4   36 1
    13    4   44 1
    14    4   45 1
    15    5    6 1
    16    5   46 1
    17    5   47 1
    18    6    7 1
    19    6    9 1
    20    7    8 1
    21    7   48 1
    22    7   49 1
    23    8   36 1
    24    8   50 1
    25    8   51 1
    26    9   10 ar
    27    9   14 ar
    28   10   11 ar
    29   10   52 1
    30   11   12 ar
    31   11   53 1
    32   12   13 ar
    33   12   15 1
    34   13   14 ar
    35   13   54 1
    36   14   55 1
    37   15   16 1
    38   16   17 1
    39   16   56 1
    40   16   57 1
    41   17   18 1
    42   17   21 1
    43   17   58 1
    44   18   19 1
    45   18   59 1
    46   18   60 1
    47   19   20 1
    48   20   21 1
    49   20   22 1
    50   20   28 1
    51   22   23 1
    52   22   61 1
    53   22   62 1
    54   23   24 ar
    55   23   27 ar
    56   24   25 ar
    57   24   63 1
    58   25   26 ar
    59   26   27 ar
    60   26   64 1
    61   28   29 ar
    62   28   33 ar
    63   29   30 ar
    64   29   65 1
    65   30   31 ar
    66   30   66 1
    67   31   32 ar
    68   31   35 1
    69   32   33 ar
    70   32   67 1
    71   33   34 1
@<TRIPOS>SUBSTRUCTURE
     1     LIG7    1   GROUP 1   LIG 1
@<TRIPOS>MOLECULE
ZINC00527386
   44    47    1     0     0
SMALL
USER_CHARGES


@<TRIPOS>ATOM
      1 C1         -0.0167    1.3782    0.0096 C.ar      1    LIG70    0.0000
      2 C2          1.1703    2.0860    0.0021 C.ar      1    LIG70    0.0000
      3 C3          2.3786    1.4101   -0.0131 C.ar      1    LIG70    0.0000
      4 C4          2.3962    0.0256   -0.0207 C.ar      1    LIG70    0.0000
      5 C5          1.2079   -0.6800   -0.0132 C.ar      1    LIG70    0.0000
      6 C6          0.0021   -0.0041    0.0020 C.ar      1    LIG70    0.0000
      7 C7         -1.2930   -0.7747    0.0103 C.3       1    LIG70    0.0000
      8 C8         -1.3504   -1.6663    1.2540 C.3       1    LIG70    0.0000
      9 C9         -2.6302   -2.5042    1.2156 C.3       1    LIG70    0.0000
     10 N1         -2.6348   -3.3421    0.0104 N.3       1    LIG70    0.0000
     11 C10        -2.6523   -2.4927   -1.1866 C.3       1    LIG70    0.0000
     12 C11        -1.3743   -1.6529   -1.2416 C.3       1    LIG70    0.0000
     13 C12        -1.3973   -0.7654   -2.4877 C.3       1    LIG70    0.0000
     14 O1         -1.3556   -1.5854   -3.6573 O.3       1    LIG70    0.0000
     15 C13        -1.3694   -0.9484   -4.8586 C.ar      1    LIG70    0.0000
     16 C14        -1.4163    0.4369   -4.9082 C.ar      1    LIG70    0.0000
     17 C15        -1.4304    1.0865   -6.1281 C.ar      1    LIG70    0.0000
     18 C16        -1.3978    0.3558   -7.3046 C.ar      1    LIG70    0.0000
     19 C17        -1.3507   -1.0351   -7.2573 C.ar      1    LIG70    0.0000
     20 C18        -1.3310   -1.6838   -6.0334 C.ar      1    LIG70    0.0000
     21 O2         -1.3260   -1.5147   -8.5352 O.3       1    LIG70    0.0000
     22 C19        -1.7704   -0.4244   -9.3640 C.3       1    LIG70    0.0000
     23 O3         -1.4025    0.7478   -8.6132 O.3       1    LIG70    0.0000
     24 F1          3.5396    2.1009   -0.0209 F         1    LIG70    0.0000
     25 H1         -0.9681    1.9100    0.0215 H         1    LIG70    0.0000
     26 H2          1.1553    3.1759    0.0081 H         1    LIG70    0.0000
     27 H3          3.3468   -0.5075   -0.0326 H         1    LIG70    0.0000
     28 H4          1.2214   -1.7699   -0.0193 H         1    LIG70    0.0000
     29 H5         -2.1283   -0.0746    0.0221 H         1    LIG70    0.0000
     30 H6         -1.3471   -1.0453    2.1498 H         1    LIG70    0.0000
     31 H7         -0.4829   -2.3260    1.2708 H         1    LIG70    0.0000
     32 H8         -3.5157   -1.8686    1.2168 H         1    LIG70    0.0000
     33 H9         -2.6540   -3.1668    2.0808 H         1    LIG70    0.0000
     34 H10        -3.4731   -3.9406    0.0152 H         1    LIG70    0.0000
     35 H11        -3.5153   -1.8312   -1.1110 H         1    LIG70    0.0000
     36 H12        -2.7473   -3.1204   -2.0726 H         1    LIG70    0.0000
     37 H13        -0.5066   -2.3112   -1.2841 H         1    LIG70    0.0000
     38 H14        -0.5648   -0.0622   -2.5102 H         1    LIG70    0.0000
     39 H15        -2.3380   -0.2159   -2.5220 H         1    LIG70    0.0000
     40 H16        -1.4421    1.0141   -3.9839 H         1    LIG70    0.0000
     41 H17        -1.4672    2.1753   -6.1645 H         1    LIG70    0.0000
     42 H18        -1.2853   -2.7721   -5.9940 H         1    LIG70    0.0000
     43 H19        -2.8400   -0.4676   -9.5694 H         1    LIG70    0.0000
     44 H20        -1.3157   -0.4432  -10.3545 H         1    LIG70    0.0000
@<TRIPOS>BOND
     1    1    2 ar
     2    1    6 ar
     3    1   25 1
     4    2    3 ar
     5    2   26 1
     6    3    4 ar
     7    3   24 1
     8    4    5 ar
     9    4   27 1
    10    5    6 ar
    11    5   28 1
    12    6    7 1
    13    7    8 1
    14    7   12 1
    15    7   29 1
    16    8    9 1
    17    8   30 1
    18    8   31 1
    19    9   10 1
    20    9   32 1
    21    9   33 1
    22   10   11 1
    23   10   34 1
    24   11   12 1
    25   11   35 1
    26   11   36 1
    27   12   13 1
    28   12   37 1
    29   13   14 1
    30   13   38 1
    31   13   39 1
    32   14   15 1
    33   15   16 ar
    34   15   20 ar
    35   16   17 ar
    36   16   40 1
    37   17   18 ar
    38   17   41 1
    39   18   19 ar
    40   18   23 1
    41   19   20 ar
    42   19   21 1
    43   20   42 1
    44   21   22 1
    45   22   23 1
    46   22   43 1
    47   22   44 1
@<TRIPOS>SUBSTRUCTURE
     1    LIG70    1   GROUP 1   LIG 1
@<TRIPOS>MOLECULE
ZINC08586064
   59    62    1     0     0
SMALL
USER_CHARGES


@<TRIPOS>ATOM
      1 C1          2.0993    0.0373    0.4487 C.3       1    LIG39    0.0000
      2 C2          2.3861    1.4448   -0.0782 C.3       1    LIG39    0.0000
      3 C3          1.1289    2.2701   -0.0051 C.ar      1    LIG39    0.0000
      4 C4         -0.1046    1.6542   -0.0213 C.ar      1    LIG39    0.0000
      5 C5         -1.2633    2.4116    0.0238 C.ar      1    LIG39    0.0000
      6 C6         -1.1973    3.7896    0.0903 C.ar      1    LIG39    0.0000
      7 C7          0.0353    4.4257    0.1078 C.ar      1    LIG39    0.0000
      8 C8          1.2077    3.6615    0.0660 C.ar      1    LIG39    0.0000
      9 C9          2.5569    4.3180    0.0736 C.2       1    LIG39    0.0000
     10 O1          2.6734    5.5141   -0.1244 O.3       1    LIG39    0.0000
     11 C10         3.7003    3.5138    0.3527 C.2       1    LIG39    0.0000
     12 C11         4.9164    4.0606    0.2425 C.2       1    LIG39    0.0000
     13 C12         6.1892    3.3364    0.5308 C.3       1    LIG39    0.0000
     14 C13         5.9106    2.0398    1.3003 C.3       1    LIG39    0.0000
     15 C14         4.7902    1.2987    0.5797 C.3       1    LIG39    0.0000
     16 C15         3.4882    2.0820    0.7657 C.3       1    LIG39    0.0000
     17 C16         7.1904    1.2050    1.3316 C.3       1    LIG39    0.0000
     18 C17         8.3533    2.0772    1.7308 C.2       1    LIG39    0.0000
     19 O2          9.4552    1.5821    1.8488 O.3       1    LIG39    0.0000
     20 C18         8.1805    3.5068    1.9780 C.2       1    LIG39    0.0000
     21 C19         7.1156    4.1737    1.3854 C.2       1    LIG39    0.0000
     22 O3          6.9194    5.4889    1.5609 O.3       1    LIG39    0.0000
     23 C20         9.1237    4.2319    2.8442 C.2       1    LIG39    0.0000
     24 O4          8.9206    5.3985    3.1221 O.3       1    LIG39    0.0000
     25 N1         10.2127    3.6033    3.3295 N.2       1    LIG39    0.0000
     26 C21         8.2028   -0.7812    2.2763 C.3       1    LIG39    0.0000
     27 C22         6.8159    0.6443    3.6571 C.3       1    LIG39    0.0000
     28 O5          6.8409    3.0157   -0.6999 O.3       1    LIG39    0.0000
     29 O6          4.9972    5.3463   -0.1544 O.3       1    LIG39    0.0000
     30 O7          0.1043    5.7795    0.1646 O.3       1    LIG39    0.0000
     31 O8          2.8192    1.3620   -1.4375 O.3       1    LIG39    0.0000
     32 N2          7.0164    0.0999    2.2977 N.3       1    LIG39    1.0000
     33 H1          3.0305   -0.5250    0.3789 H         1    LIG39    0.0000
     34 H2          1.7674    0.1451    1.4813 H         1    LIG39    0.0000
     35 H3          1.3208   -0.3877   -0.1849 H         1    LIG39    0.0000
     36 H4         -0.1681    0.5671   -0.0698 H         1    LIG39    0.0000
     37 H5         -2.2343    1.9166    0.0067 H         1    LIG39    0.0000
     38 H6         -2.1143    4.3776    0.1291 H         1    LIG39    0.0000
     39 H7          3.6759    5.7364   -0.0440 H         1    LIG39    0.0000
     40 H8          5.6048    2.2408    2.3271 H         1    LIG39    0.0000
     41 H9          4.6836    0.2972    0.9965 H         1    LIG39    0.0000
     42 H10         5.0256    1.2106   -0.4809 H         1    LIG39    0.0000
     43 H11         3.1900    2.0573    1.8138 H         1    LIG39    0.0000
     44 H12         7.3924    0.7902    0.3441 H         1    LIG39    0.0000
     45 H13        10.0976    2.3390    2.1231 H         1    LIG39    0.0000
     46 H14         7.6744    5.8268    2.1746 H         1    LIG39    0.0000
     47 H15         9.6943    5.7023    3.7303 H         1    LIG39    0.0000
     48 H16        10.8729    4.1108    3.9358 H         1    LIG39    0.0000
     49 H17        10.3848    2.6154    3.0941 H         1    LIG39    0.0000
     50 H18         8.0238   -1.5744    3.0021 H         1    LIG39    0.0000
     51 H19         8.2914   -1.1719    1.2626 H         1    LIG39    0.0000
     52 H20         9.0607   -0.1672    2.5504 H         1    LIG39    0.0000
     53 H21         6.6935   -0.2072    4.3265 H         1    LIG39    0.0000
     54 H22         7.7040    1.2273    3.9011 H         1    LIG39    0.0000
     55 H23         5.9205    1.2649    3.6230 H         1    LIG39    0.0000
     56 H24         6.1813    2.4481   -1.2509 H         1    LIG39    0.0000
     57 H25         4.0331    5.6761   -0.3050 H         1    LIG39    0.0000
     58 H26        -0.8641    6.1297    0.1868 H         1    LIG39    0.0000
     59 H27         2.0525    0.9291   -1.9720 H         1    LIG39    0.0000
@<TRIPOS>BOND
     1    1    2 1
     2    1   33 1
     3    1   34 1
     4    1   35 1
     5    2    3 1
     6    2   16 1
     7    2   31 1
     8    3    4 ar
     9    3    8 ar
    10    4    5 ar
    11    4   36 1
    12    5    6 ar
    13    5   37 1
    14    6    7 ar
    15    6   38 1
    16    7    8 ar
    17    7   30 1
    18    8    9 1
    19    9   10 1
    20    9   11 1
    21   10   39 1
    22   11   12 2
    23   11   16 1
    24   12   13 1
    25   12   29 1
    26   13   14 1
    27   13   21 1
    28   13   28 1
    29   14   15 1
    30   14   17 1
    31   14   40 1
    32   15   16 1
    33   15   41 1
    34   15   42 1
    35   16   43 1
    36   17   18 1
    37   17   32 1
    38   17   44 1
    39   18   19 1
    40   18   20 1
    41   19   45 1
    42   20   21 2
    43   20   23 1
    44   21   22 1
    45   22   46 1
    46   23   24 1
    47   23   25 1
    48   24   47 1
    49   25   48 1
    50   25   49 1
    51   26   32 1
    52   26   50 1
    53   26   51 1
    54   26   52 1
    55   27   32 1
    56   27   53 1
    57   27   54 1
    58   27   55 1
    59   28   56 1
    60   29   57 1
    61   30   58 1
    62   31   59 1
@<TRIPOS>SUBSTRUCTURE
     1    LIG39    1   GROUP 1   LIG 1
@<TRIPOS>MOLECULE
ZINC00020242
   48    50    1     0     0
SMALL
USER_CHARGES


@<TRIPOS>ATOM
      1 C1          2.8748   -2.7998    3.4003 C.3       1    LIG54    0.0000
      2 C2          2.5408   -3.5945    2.1363 C.3       1    LIG54    0.0000
      3 C3          2.4432   -2.6461    0.9416 C.3       1    LIG54    0.0000
      4 C4          2.2913   -3.4593   -0.3321 C.3       1    LIG54    0.0000
      5 C5          1.3040   -4.5835   -0.1696 C.ar      1    LIG54    0.0000
      6 C6          0.8805   -5.2403   -1.3201 C.ar      1    LIG54    0.0000
      7 C7         -0.0116   -6.2878   -1.2424 C.ar      1    LIG54    0.0000
      8 C8         -0.4923   -6.6949   -0.0060 C.ar      1    LIG54    0.0000
      9 C9         -0.0749   -6.0379    1.1396 C.ar      1    LIG54    0.0000
     10 C10         0.8163   -4.9790    1.0549 C.ar      1    LIG54    0.0000
     11 C11         1.2029   -4.2779    2.3364 C.3       1    LIG54    0.0000
     12 C12         0.1456   -3.1917    2.6027 C.3       1    LIG54    0.0000
     13 C13         0.0605   -2.3041    1.3361 C.3       1    LIG54    0.0000
     14 C14         1.3172   -0.7397   -0.0145 C.3       1    LIG54    0.0000
     15 C15         0.1425    0.1888    0.1560 C.2       1    LIG54    0.0000
     16 C16         0.3257    1.4858    0.1437 C.2       1    LIG54    0.0000
     17 C17         1.7110    2.0495   -0.0411 C.3       1    LIG54    0.0000
     18 C18        -0.8499    2.4144    0.3080 C.3       1    LIG54    0.0000
     19 C19         1.2570   -5.2724    3.4979 C.3       1    LIG54    0.0000
     20 O1         -1.3672   -7.7313    0.0802 O.3       1    LIG54    0.0000
     21 N1          1.3757   -1.6443    1.1423 N.3       1    LIG54    0.0000
     22 H1          2.9335   -3.5154    4.2204 H         1    LIG54    0.0000
     23 H2          3.8307   -2.3068    3.2235 H         1    LIG54    0.0000
     24 H3          2.0689   -2.0807    3.5469 H         1    LIG54    0.0000
     25 H4          3.3206   -4.3322    1.9472 H         1    LIG54    0.0000
     26 H5          3.3619   -2.0673    0.8462 H         1    LIG54    0.0000
     27 H6          3.2595   -3.8905   -0.5866 H         1    LIG54    0.0000
     28 H7          1.9193   -2.7989   -1.1154 H         1    LIG54    0.0000
     29 H8          1.2578   -4.9235   -2.2924 H         1    LIG54    0.0000
     30 H9         -0.3388   -6.7953   -2.1499 H         1    LIG54    0.0000
     31 H10        -0.4490   -6.3550    2.1131 H         1    LIG54    0.0000
     32 H11         0.4298   -2.5938    3.4687 H         1    LIG54    0.0000
     33 H12        -0.8209   -3.6460    2.8210 H         1    LIG54    0.0000
     34 H13        -0.7254   -1.5534    1.4192 H         1    LIG54    0.0000
     35 H14        -0.1477   -2.9203    0.4614 H         1    LIG54    0.0000
     36 H15         2.2480   -0.1778   -0.0918 H         1    LIG54    0.0000
     37 H16         1.1906   -1.3336   -0.9197 H         1    LIG54    0.0000
     38 H17        -0.8595   -0.2189    0.2895 H         1    LIG54    0.0000
     39 H18         1.6190    3.1354   -0.0177 H         1    LIG54    0.0000
     40 H19         2.3194    1.6765    0.7828 H         1    LIG54    0.0000
     41 H20         2.0735    1.6943   -1.0057 H         1    LIG54    0.0000
     42 H21        -0.4608    3.4317    0.2658 H         1    LIG54    0.0000
     43 H22        -1.5359    2.2085   -0.5137 H         1    LIG54    0.0000
     44 H23        -1.2988    2.1920    1.2761 H         1    LIG54    0.0000
     45 H24         0.2668   -5.7206    3.5801 H         1    LIG54    0.0000
     46 H25         2.0174   -6.0125    3.2486 H         1    LIG54    0.0000
     47 H26         1.5206   -4.7055    4.3908 H         1    LIG54    0.0000
     48 H27        -1.5355   -8.0640   -0.8800 H         1    LIG54    0.0000
@<TRIPOS>BOND
     1    1    2 1
     2    1   22 1
     3    1   23 1
     4    1   24 1
     5    2    3 1
     6    2   11 1
     7    2   25 1
     8    3    4 1
     9    3   21 1
    10    3   26 1
    11    4    5 1
    12    4   27 1
    13    4   28 1
    14    5    6 ar
    15    5   10 ar
    16    6    7 ar
    17    6   29 1
    18    7    8 ar
    19    7   30 1
    20    8    9 ar
    21    8   20 1
    22    9   10 ar
    23    9   31 1
    24   10   11 1
    25   11   12 1
    26   11   19 1
    27   12   13 1
    28   12   32 1
    29   12   33 1
    30   13   21 1
    31   13   34 1
    32   13   35 1
    33   14   15 1
    34   14   21 1
    35   14   36 1
    36   14   37 1
    37   15   16 2
    38   15   38 1
    39   16   17 1
    40   16   18 1
    41   17   39 1
    42   17   40 1
    43   17   41 1
    44   18   42 1
    45   18   43 1
    46   18   44 1
    47   19   45 1
    48   19   46 1
    49   19   47 1
    50   20   48 1
@<TRIPOS>SUBSTRUCTURE
     1    LIG54    1   GROUP 1   LIG 1
@<TRIPOS>MOLECULE
ZINC00000440
   31    34    1     0     0
SMALL
USER_CHARGES


@<TRIPOS>ATOM
      1 C1         -1.2154    1.7525    0.0173 C.ar      1    LIG50    0.0000
      2 C2         -1.2367    3.1359    0.0316 C.ar      1    LIG50    0.0000
      3 C3         -0.0518    3.8515    0.0237 C.ar      1    LIG50    0.0000
      4 C4          1.1538    3.1842    0.0082 C.ar      1    LIG50    0.0000
      5 C5          1.1839    1.7925    0.0004 C.ar      1    LIG50    0.0000
      6 C6         -0.0126    1.0758    0.0080 C.ar      1    LIG50    0.0000
      7 C7          2.6036    1.3421   -0.0156 C.ar      1    LIG50    0.0000
      8 C8          4.7115    0.4696   -0.0405 C.ar      1    LIG50    0.0000
      9 C9          4.8236    2.0056   -0.0333 C.ar      1    LIG50    0.0000
     10 N1          3.4185    2.4456   -0.0175 N.pl3     1    LIG50    0.0000
     11 C10         2.5855    3.6542   -0.0030 C.3       1    LIG50    0.0000
     12 C11         2.8505    4.4797   -1.2356 C.ar      1    LIG50    0.0000
     13 C12         3.2377    3.8624   -2.4104 C.ar      1    LIG50    0.0000
     14 C13         3.4754    4.6185   -3.5428 C.ar      1    LIG50    0.0000
     15 C14         3.3366    5.9943   -3.4974 C.ar      1    LIG50    0.0000
     16 C15         2.9545    6.6119   -2.3199 C.ar      1    LIG50    0.0000
     17 C16         2.7116    5.8543   -1.1896 C.ar      1    LIG50    0.0000
     18 Cl1         3.6412    6.9451   -4.9175 Cl        1    LIG50    0.0000
     19 O1          2.8582    4.4237    1.1699 O.3       1    LIG50    0.0000
     20 N2          3.2644    0.2103   -0.0281 N.ar      1    LIG50    0.0000
     21 H1         -2.1521    1.1951    0.0134 H         1    LIG50    0.0000
     22 H2         -2.1900    3.6641    0.0491 H         1    LIG50    0.0000
     23 H3         -0.0723    4.9413    0.0297 H         1    LIG50    0.0000
     24 H4          0.0022   -0.0141    0.0066 H         1    LIG50    0.0000
     25 H5          5.5214   -0.2598   -0.0521 H         1    LIG50    0.0000
     26 H6          5.7249    2.6186   -0.0386 H         1    LIG50    0.0000
     27 H7          3.3556    2.7793   -2.4437 H         1    LIG50    0.0000
     28 H8          3.7721    4.1309   -4.4714 H         1    LIG50    0.0000
     29 H9          2.8450    7.6958   -2.2835 H         1    LIG50    0.0000
     30 H10         2.4105    6.3408   -0.2618 H         1    LIG50    0.0000
     31 H11         2.6627    3.8179    1.9797 H         1    LIG50    0.0000
@<TRIPOS>BOND
     1    1    2 ar
     2    1    6 ar
     3    1   21 1
     4    2    3 ar
     5    2   22 1
     6    3    4 ar
     7    3   23 1
     8    4    5 ar
     9    4   11 1
    10    5    6 ar
    11    5    7 1
    12    6   24 1
    13    7   10 ar
    14    7   20 ar
    15    8    9 ar
    16    8   20 ar
    17    8   25 1
    18    9   10 ar
    19    9   26 1
    20   10   11 1
    21   11   12 1
    22   11   19 1
    23   12   13 ar
    24   12   17 ar
    25   13   14 ar
    26   13   27 1
    27   14   15 ar
    28   14   28 1
    29   15   16 ar
    30   15   18 1
    31   16   17 ar
    32   16   29 1
    33   17   30 1
    34   19   31 1
@<TRIPOS>SUBSTRUCTURE
     1    LIG50    1   GROUP 1   LIG 1
@<TRIPOS>MOLECULE
ZINC13298659
   54    57    1     0     0
SMALL
USER_CHARGES


@<TRIPOS>ATOM
      1 C1         -0.4838   -2.6995    3.7467 C.3       1    LIG89    0.0000
      2 C2         -0.6719   -1.1885    3.8962 C.3       1    LIG89    0.0000
      3 C3         -1.8875   -0.9098    4.7823 C.3       1    LIG89    0.0000
      4 C4         -1.6415   -1.5138    6.1690 C.3       1    LIG89    0.0000
      5 C5         -0.3700   -0.9333    6.7360 C.2       1    LIG89    0.0000
      6 O1         -0.2249   -0.8464    7.9374 O.3       1    LIG89    0.0000
      7 C6          0.6872   -0.4759    5.8363 C.2       1    LIG89    0.0000
      8 C7          0.5587   -0.5829    4.5181 C.2       1    LIG89    0.0000
      9 C8          1.6471   -0.0890    3.5972 C.3       1    LIG89    0.0000
     10 C9          1.0890    0.9886    2.7020 C.3       1    LIG89    0.0000
     11 C10        -0.4213    0.8852    2.5032 C.3       1    LIG89    0.0000
     12 C11        -0.8925   -0.5598    2.5139 C.3       1    LIG89    0.0000
     13 C12        -2.3957   -0.6131    2.2093 C.3       1    LIG89    0.0000
     14 C13        -2.6880   -0.0070    0.8343 C.3       1    LIG89    0.0000
     15 C14        -2.2638    1.4652    0.8044 C.3       1    LIG89    0.0000
     16 C15        -0.7911    1.6110    1.2288 C.3       1    LIG89    0.0000
     17 C16        -0.0127    1.0858    0.0080 C.3       1    LIG89    0.0000
     18 C17        -0.8173    1.6261   -1.1967 C.3       1    LIG89    0.0000
     19 C18        -2.2461    1.8927   -0.6874 C.3       1    LIG89    0.0000
     20 C19        -3.2141    1.0927   -1.4553 C.2       1    LIG89    0.0000
     21 C20        -3.9861    0.4546   -2.0678 C.3       1    LIG89    0.0000
     22 O2         -2.5572    3.2826   -0.8033 O.3       1    LIG89    0.0000
     23 C21        -3.1921    2.3444    1.6448 C.3       1    LIG89    0.0000
     24 H1          0.3887   -2.8507    3.1111 H         1    LIG89    0.0000
     25 H2         -0.3305   -3.1022    4.7479 H         1    LIG89    0.0000
     26 H3         -1.3921   -3.0898    3.2876 H         1    LIG89    0.0000
     27 H4         -2.7760   -1.3584    4.3379 H         1    LIG89    0.0000
     28 H5         -2.0401    0.1659    4.8699 H         1    LIG89    0.0000
     29 H6         -1.5532   -2.5981    6.1010 H         1    LIG89    0.0000
     30 H7         -2.4723   -1.2682    6.8305 H         1    LIG89    0.0000
     31 H8          0.7022   -0.4280    8.0993 H         1    LIG89    0.0000
     32 H9          1.5952   -0.0402    6.2532 H         1    LIG89    0.0000
     33 H10         2.0148   -0.9154    2.9890 H         1    LIG89    0.0000
     34 H11         2.4693    0.3160    4.1872 H         1    LIG89    0.0000
     35 H12         1.5589    0.8693    1.7258 H         1    LIG89    0.0000
     36 H13         1.3046    1.9496    3.1690 H         1    LIG89    0.0000
     37 H14        -0.9355    1.3621    3.3376 H         1    LIG89    0.0000
     38 H15        -0.3240   -1.1072    1.7621 H         1    LIG89    0.0000
     39 H16        -2.9323   -0.0434    2.9680 H         1    LIG89    0.0000
     40 H17        -2.7199   -1.6538    2.2109 H         1    LIG89    0.0000
     41 H18        -3.7576   -0.0744    0.6354 H         1    LIG89    0.0000
     42 H19        -2.1292   -0.5557    0.0762 H         1    LIG89    0.0000
     43 H20        -0.5577    2.6448    1.4837 H         1    LIG89    0.0000
     44 H21         0.0653   -0.0014    0.0031 H         1    LIG89    0.0000
     45 H22         1.0255    1.4176    0.0016 H         1    LIG89    0.0000
     46 H23        -0.8240    0.9086   -2.0172 H         1    LIG89    0.0000
     47 H24        -0.3688    2.5401   -1.5860 H         1    LIG89    0.0000
     48 H25        -4.9805    0.7503   -1.7333 H         1    LIG89    0.0000
     49 H26        -3.8271    0.6867   -3.1209 H         1    LIG89    0.0000
     50 H27        -3.7794   -0.5928   -1.8480 H         1    LIG89    0.0000
     51 H28        -1.8548    3.7954   -0.2515 H         1    LIG89    0.0000
     52 H29        -2.8199    3.3659    1.5675 H         1    LIG89    0.0000
     53 H30        -4.1927    2.2448    1.2240 H         1    LIG89    0.0000
     54 H31        -3.1438    1.9719    2.6680 H         1    LIG89    0.0000
@<TRIPOS>BOND
     1    1    2 1
     2    1   24 1
     3    1   25 1
     4    1   26 1
     5    2    3 1
     6    2    8 1
     7    2   12 1
     8    3    4 1
     9    3   27 1
    10    3   28 1
    11    4    5 1
    12    4   29 1
    13    4   30 1
    14    5    6 1
    15    5    7 1
    16    6   31 1
    17    7    8 2
    18    7   32 1
    19    8    9 1
    20    9   10 1
    21    9   33 1
    22    9   34 1
    23   10   11 1
    24   10   35 1
    25   10   36 1
    26   11   12 1
    27   11   16 1
    28   11   37 1
    29   12   13 1
    30   12   38 1
    31   13   14 1
    32   13   39 1
    33   13   40 1
    34   14   15 1
    35   14   41 1
    36   14   42 1
    37   15   16 1
    38   15   19 1
    39   15   23 1
    40   16   17 1
    41   16   43 1
    42   17   18 1
    43   17   44 1
    44   17   45 1
    45   18   19 1
    46   18   46 1
    47   18   47 1
    48   19   20 1
    49   19   22 1
    50   20   21 1
    51   21   48 1
    52   21   49 1
    53   21   50 1
    54   22   51 1
    55   23   52 1
    56   23   53 1
    57   23   54 1
@<TRIPOS>SUBSTRUCTURE
     1    LIG89    1   GROUP 1   LIG 1
@<TRIPOS>MOLECULE
ZINC19632834
   45    48    1     0     0
SMALL
USER_CHARGES


@<TRIPOS>ATOM
      1 C1          0.2982    1.3156    3.0250 C.3       1     LIG8    0.0000
      2 N1          0.7658    0.3538    2.0179 N.3       1     LIG8    0.0000
      3 C2          2.2222    0.4381    1.8458 C.3       1     LIG8    0.0000
      4 C3          2.6459   -0.4446    0.6670 C.3       1     LIG8    0.0000
      5 N2          2.1232   -1.8015    0.8879 N.pl3     1     LIG8    0.0000
      6 C4          0.6946   -1.9543    1.2026 C.3       1     LIG8    0.0000
      7 C5          0.3478   -1.0121    2.3603 C.3       1     LIG8    0.0000
      8 C6          2.9318   -2.8765    0.8037 C.2       1     LIG8    0.0000
      9 O1          4.1096   -2.7319    0.5423 O.3       1     LIG8    0.0000
     10 O2          2.4345   -4.1107    1.0092 O.3       1     LIG8    0.0000
     11 C7          3.3203   -5.2112    0.7942 C.3       1     LIG8    0.0000
     12 C8          3.9181   -5.6588    2.1048 C.ar      1     LIG8    0.0000
     13 C9          3.5232   -6.9853    2.2866 C.ar      1     LIG8    0.0000
     14 N3          3.9139   -7.6405    3.3767 N.ar      1     LIG8    0.0000
     15 C10         4.6675   -7.0351    4.2726 C.ar      1     LIG8    0.0000
     16 C11         5.0556   -5.7165    4.0851 C.ar      1     LIG8    0.0000
     17 N4          4.6710   -5.0594    3.0034 N.ar      1     LIG8    0.0000
     18 C12         2.6949   -7.3847    1.1292 C.2       1     LIG8    0.0000
     19 O3          2.1928   -8.4811    0.9792 O.2       1     LIG8    0.0000
     20 N5          2.5772   -6.3602    0.2650 N.am      1     LIG8    0.0000
     21 C13         1.8672   -6.3853   -0.9338 C.ar      1     LIG8    0.0000
     22 C14         1.9775   -5.3210   -1.8219 C.ar      1     LIG8    0.0000
     23 C15         1.2673   -5.3582   -3.0086 C.ar      1     LIG8    0.0000
     24 C16         0.4673   -6.4641   -3.2677 C.ar      1     LIG8    0.0000
     25 C17         0.4052   -7.4860   -2.3395 C.ar      1     LIG8    0.0000
     26 N6          1.0985   -7.4244   -1.2187 N.ar      1     LIG8    0.0000
     27 Cl1        -0.4451   -6.5610   -4.7415 Cl        1     LIG8    0.0000
     28 H1         -0.7829    1.1982    3.1000 H         1     LIG8    0.0000
     29 H2          0.7988    1.0661    3.9606 H         1     LIG8    0.0000
     30 H3          0.5744    2.3084    2.6699 H         1     LIG8    0.0000
     31 H4          2.6885    0.0717    2.7603 H         1     LIG8    0.0000
     32 H5          2.5097    1.4771    1.6852 H         1     LIG8    0.0000
     33 H6          3.7301   -0.4776    0.5593 H         1     LIG8    0.0000
     34 H7          2.2177   -0.0588   -0.2581 H         1     LIG8    0.0000
     35 H8          0.5177   -2.9880    1.4998 H         1     LIG8    0.0000
     36 H9          0.0949   -1.7410    0.3178 H         1     LIG8    0.0000
     37 H10        -0.7317   -1.0033    2.5109 H         1     LIG8    0.0000
     38 H11         0.8386   -1.3219    3.2829 H         1     LIG8    0.0000
     39 H12         4.2704   -1.7212    0.4262 H         1     LIG8    0.0000
     40 H13         4.0922   -4.8837    0.0978 H         1     LIG8    0.0000
     41 H14         4.9873   -7.5730    5.1651 H         1     LIG8    0.0000
     42 H15         5.6783   -5.2212    4.8301 H         1     LIG8    0.0000
     43 H16         2.6150   -4.4688   -1.5862 H         1     LIG8    0.0000
     44 H17         1.3339   -4.5385   -3.7240 H         1     LIG8    0.0000
     45 H18        -0.2245   -8.3538   -2.5358 H         1     LIG8    0.0000
@<TRIPOS>BOND
     1    1    2 1
     2    1   28 1
     3    1   29 1
     4    1   30 1
     5    2    3 1
     6    2    7 1
     7    3    4 1
     8    3   31 1
     9    3   32 1
    10    4    5 1
    11    4   33 1
    12    4   34 1
    13    5    6 1
    14    5    8 2
    15    6    7 1
    16    6   35 1
    17    6   36 1
    18    7   37 1
    19    7   38 1
    20    8    9 1
    21    8   10 1
    22    9   39 1
    23   10   11 1
    24   11   12 1
    25   11   20 1
    26   11   40 1
    27   12   13 ar
    28   12   17 ar
    29   13   14 ar
    30   13   18 1
    31   14   15 ar
    32   15   16 ar
    33   15   41 1
    34   16   17 ar
    35   16   42 1
    36   18   19 2
    37   18   20 ar
    38   20   21 1
    39   21   22 ar
    40   21   26 ar
    41   22   23 ar
    42   22   43 1
    43   23   24 ar
    44   23   44 1
    45   24   25 ar
    46   24   27 1
    47   25   26 ar
    48   25   45 1
@<TRIPOS>SUBSTRUCTURE
     1     LIG8    1   GROUP 1   LIG 1
@<TRIPOS>MOLECULE
ZINC03873296
   39    41    1     0     0
SMALL
USER_CHARGES


@<TRIPOS>ATOM
      1 C1         -1.1981    1.7002   -0.5928 C.ar      1   LIG103    0.0000
      2 C2          0.0066    1.0317   -0.4797 C.ar      1   LIG103    0.0000
      3 C3          1.1935    1.7396   -0.4855 C.ar      1   LIG103    0.0000
      4 C4          1.1764    3.1186   -0.5992 C.ar      1   LIG103    0.0000
      5 C5         -0.0288    3.7885   -0.7066 C.ar      1   LIG103    0.0000
      6 C6         -1.2167    3.0793   -0.7003 C.ar      1   LIG103    0.0000
      7 Cl1        -2.7300    3.9193   -0.8351 Cl        1   LIG103    0.0000
      8 Cl2         2.6675    4.0076   -0.6075 Cl        1   LIG103    0.0000
      9 C7          2.5067    1.0095   -0.3684 C.3       1   LIG103    0.0000
     10 O1          2.2607   -0.3802   -0.1440 O.3       1   LIG103    0.0000
     11 N1          3.4311   -1.1415    0.0917 N.2       1   LIG103    0.0000
     12 C8          3.3531   -2.4271    0.2128 C.2       1   LIG103    0.0000
     13 C9          4.6093   -3.2494    0.3422 C.3       1   LIG103    0.0000
     14 N2          4.9618   -3.3831    1.7579 N.pl3     1   LIG103    0.0000
     15 C10         5.7686   -2.5431    2.4768 C.ar      1   LIG103    0.0000
     16 C11         5.8206   -3.0314    3.7308 C.ar      1   LIG103    0.0000
     17 N3          5.0736   -4.1445    3.7739 N.ar      1   LIG103    0.0000
     18 C12         4.5560   -4.3614    2.5957 C.ar      1   LIG103    0.0000
     19 C13         2.0338   -3.0883    0.2243 C.ar      1   LIG103    0.0000
     20 C14         1.1415   -2.8550    1.2730 C.ar      1   LIG103    0.0000
     21 C15        -0.0914   -3.4724    1.2759 C.ar      1   LIG103    0.0000
     22 C16        -0.4425   -4.3308    0.2468 C.ar      1   LIG103    0.0000
     23 C17         0.4385   -4.5708   -0.7936 C.ar      1   LIG103    0.0000
     24 C18         1.6743   -3.9552   -0.8111 C.ar      1   LIG103    0.0000
     25 Cl3         2.7784   -4.2568   -2.1163 Cl        1   LIG103    0.0000
     26 Cl4        -1.9940   -5.1095    0.2624 Cl        1   LIG103    0.0000
     27 H1         -2.1335    1.1406   -0.5973 H         1   LIG103    0.0000
     28 H2          0.0204   -0.0542   -0.3859 H         1   LIG103    0.0000
     29 H3         -0.0427    4.8747   -0.7962 H         1   LIG103    0.0000
     30 H4          3.1159    1.4049    0.4444 H         1   LIG103    0.0000
     31 H5          3.0535    1.0956   -1.3074 H         1   LIG103    0.0000
     32 H6          5.4333   -2.7787   -0.1941 H         1   LIG103    0.0000
     33 H7          4.4341   -4.2459   -0.0632 H         1   LIG103    0.0000
     34 H8          6.2722   -1.6505    2.1057 H         1   LIG103    0.0000
     35 H9          6.3729   -2.5980    4.5646 H         1   LIG103    0.0000
     36 H10         3.9042   -5.1942    2.3316 H         1   LIG103    0.0000
     37 H11         1.4192   -2.1861    2.0876 H         1   LIG103    0.0000
     38 H12        -0.7915   -3.2846    2.0899 H         1   LIG103    0.0000
     39 H13         0.1561   -5.2470   -1.6005 H         1   LIG103    0.0000
@<TRIPOS>BOND
     1    1    2 ar
     2    1    6 ar
     3    1   27 1
     4    2    3 ar
     5    2   28 1
     6    3    4 ar
     7    3    9 1
     8    4    5 ar
     9    4    8 1
    10    5    6 ar
    11    5   29 1
    12    6    7 1
    13    9   10 1
    14    9   30 1
    15    9   31 1
    16   10   11 1
    17   11   12 2
    18   12   13 1
    19   12   19 1
    20   13   14 1
    21   13   32 1
    22   13   33 1
    23   14   15 ar
    24   14   18 ar
    25   15   16 ar
    26   15   34 1
    27   16   17 ar
    28   16   35 1
    29   17   18 ar
    30   18   36 1
    31   19   20 ar
    32   19   24 ar
    33   20   21 ar
    34   20   37 1
    35   21   22 ar
    36   21   38 1
    37   22   23 ar
    38   22   26 1
    39   23   24 ar
    40   23   39 1
    41   24   25 1
@<TRIPOS>SUBSTRUCTURE
     1   LIG103    1   GROUP 1   LIG 1
@<TRIPOS>MOLECULE
ZINC00121541
   35    37    1     0     0
SMALL
USER_CHARGES


@<TRIPOS>ATOM
      1 C1         -0.3066    1.7489   -0.5958 C.3       1   LIG105    0.0000
      2 O1         -0.2105    0.3493   -0.3240 O.3       1   LIG105    0.0000
      3 C2         -1.3674   -0.3428   -0.2563 C.2       1   LIG105    0.0000
      4 O2         -2.4294    0.2288   -0.4240 O.3       1   LIG105    0.0000
      5 N1         -1.3473   -1.6557   -0.0053 N.2       1   LIG105    0.0000
      6 C3         -2.4857   -2.3172    0.1599 C.ar      1   LIG105    0.0000
      7 N2         -3.7309   -1.8007   -0.0226 N.ar      1   LIG105    0.0000
      8 C4         -4.6599   -2.8022    0.2468 C.ar      1   LIG105    0.0000
      9 C5         -6.0423   -2.8369    0.2221 C.ar      1   LIG105    0.0000
     10 C6         -6.7092   -4.0199    0.5512 C.ar      1   LIG105    0.0000
     11 C7         -5.9772   -5.1596    0.9029 C.ar      1   LIG105    0.0000
     12 C8         -4.6120   -5.1212    0.9266 C.ar      1   LIG105    0.0000
     13 C9         -3.9392   -3.9486    0.6002 C.ar      1   LIG105    0.0000
     14 N3         -2.5927   -3.6218    0.5330 N.ar      1   LIG105    0.0000
     15 C10        -8.1833   -4.0673    0.5283 C.2       1   LIG105    0.0000
     16 O3         -8.8050   -3.3056   -0.1869 O.3       1   LIG105    0.0000
     17 C11        -8.9045   -5.0405    1.3748 C.ar      1   LIG105    0.0000
     18 C12        -8.2666   -5.6249    2.4712 C.ar      1   LIG105    0.0000
     19 C13        -8.9457   -6.5325    3.2569 C.ar      1   LIG105    0.0000
     20 C14       -10.2561   -6.8645    2.9610 C.ar      1   LIG105    0.0000
     21 C15       -10.8944   -6.2893    1.8762 C.ar      1   LIG105    0.0000
     22 C16       -10.2291   -5.3758    1.0854 C.ar      1   LIG105    0.0000
     23 H1          0.7104    2.1406   -0.6140 H         1   LIG105    0.0000
     24 H2         -0.7982    1.8527   -1.5631 H         1   LIG105    0.0000
     25 H3         -0.8963    2.1899    0.2079 H         1   LIG105    0.0000
     26 H4         -3.1709   -0.4799   -0.3302 H         1   LIG105    0.0000
     27 H5         -6.6082   -1.9467   -0.0525 H         1   LIG105    0.0000
     28 H6         -6.4987   -6.0819    1.1590 H         1   LIG105    0.0000
     29 H7         -4.0481   -6.0124    1.2022 H         1   LIG105    0.0000
     30 H8         -9.8048   -3.5097   -0.0471 H         1   LIG105    0.0000
     31 H9         -7.2344   -5.3643    2.7054 H         1   LIG105    0.0000
     32 H10        -8.4491   -6.9893    4.1129 H         1   LIG105    0.0000
     33 H11       -10.7880   -7.5824    3.5853 H         1   LIG105    0.0000
     34 H12       -11.9252   -6.5587    1.6462 H         1   LIG105    0.0000
     35 H13       -10.7359   -4.9167    0.2366 H         1   LIG105    0.0000
@<TRIPOS>BOND
     1    1    2 1
     2    1   23 1
     3    1   24 1
     4    1   25 1
     5    2    3 1
     6    3    4 1
     7    3    5 1
     8    4   26 1
     9    5    6 2
    10    6    7 ar
    11    6   14 ar
    12    7    8 ar
    13    8    9 ar
    14    8   13 ar
    15    9   10 ar
    16    9   27 1
    17   10   11 ar
    18   10   15 1
    19   11   12 ar
    20   11   28 1
    21   12   13 ar
    22   12   29 1
    23   13   14 ar
    24   15   16 1
    25   15   17 1
    26   16   30 1
    27   17   18 ar
    28   17   22 ar
    29   18   19 ar
    30   18   31 1
    31   19   20 ar
    32   19   32 1
    33   20   21 ar
    34   20   33 1
    35   21   22 ar
    36   21   34 1
    37   22   35 1
@<TRIPOS>SUBSTRUCTURE
     1   LIG105    1   GROUP 1   LIG 1
@<TRIPOS>MOLECULE
ZINC13298661
   54    57    1     0     0
SMALL
USER_CHARGES


@<TRIPOS>ATOM
      1 C1         -0.4829    1.0082   -0.8427 C.3       1    LIG90    0.0000
      2 C2         -0.1623    2.4993   -0.7215 C.3       1    LIG90    0.0000
      3 C3         -0.5182    3.1597   -2.0416 C.3       1    LIG90    0.0000
      4 C4         -2.0187    3.3855   -2.1771 C.3       1    LIG90    0.0000
      5 C5         -2.4331    4.2709   -1.0182 C.2       1    LIG90    0.0000
      6 O1         -3.1062    5.2665   -1.1850 O.3       1    LIG90    0.0000
      7 C6         -1.9779    3.8619    0.3150 C.2       1    LIG90    0.0000
      8 C7         -0.9357    3.0415    0.4410 C.2       1    LIG90    0.0000
      9 C8         -0.5265    2.5824    1.8432 C.3       1    LIG90    0.0000
     10 C9          0.9812    2.7904    1.9990 C.3       1    LIG90    0.0000
     11 C10         1.7155    2.0361    0.8854 C.3       1    LIG90    0.0000
     12 C11         1.3382    2.6333   -0.4688 C.3       1    LIG90    0.0000
     13 C12         1.7462    4.1090   -0.4713 C.3       1    LIG90    0.0000
     14 C13         3.2676    4.1849   -0.3634 C.3       1    LIG90    0.0000
     15 C14         3.7608    3.5553    0.9410 C.3       1    LIG90    0.0000
     16 C15         3.2096    2.1283    1.1110 C.3       1    LIG90    0.0000
     17 C16         4.0124    1.3096    0.0835 C.3       1    LIG90    0.0000
     18 C17         5.4387    1.8972    0.1925 C.3       1    LIG90    0.0000
     19 C18         5.2855    3.3177    0.7679 C.3       1    LIG90    0.0000
     20 C19         5.8483    4.3055   -0.1672 C.2       1    LIG90    0.0000
     21 C20         6.2971    5.0933   -0.9130 C.3       1    LIG90    0.0000
     22 O2          5.9434    3.4097    2.0331 O.3       1    LIG90    0.0000
     23 C21         3.4567    4.4275    2.1607 C.3       1    LIG90    0.0000
     24 H1         -0.2229    0.5478    0.1105 H         1    LIG90    0.0000
     25 H2         -1.5492    0.9276   -1.0541 H         1    LIG90    0.0000
     26 H3          0.1230    0.6174   -1.6602 H         1    LIG90    0.0000
     27 H4         -0.1974    2.5005   -2.8482 H         1    LIG90    0.0000
     28 H5         -0.0189    4.1277   -2.0852 H         1    LIG90    0.0000
     29 H6         -2.5604    2.4399   -2.1561 H         1    LIG90    0.0000
     30 H7         -2.2552    3.8615   -3.1287 H         1    LIG90    0.0000
     31 H8         -3.2518    5.6904   -0.2576 H         1    LIG90    0.0000
     32 H9         -2.4925    4.2293    1.2029 H         1    LIG90    0.0000
     33 H10        -0.7735    1.5294    1.9783 H         1    LIG90    0.0000
     34 H11        -1.0619    3.1610    2.5960 H         1    LIG90    0.0000
     35 H12         1.3019    2.4108    2.9691 H         1    LIG90    0.0000
     36 H13         1.2111    3.8539    1.9334 H         1    LIG90    0.0000
     37 H14         1.4253    0.9855    0.8975 H         1    LIG90    0.0000
     38 H15         1.8563    2.0972   -1.2640 H         1    LIG90    0.0000
     39 H16         1.2850    4.6282    0.3689 H         1    LIG90    0.0000
     40 H17         1.4138    4.5876   -1.3925 H         1    LIG90    0.0000
     41 H18         3.5645    5.2336   -0.3780 H         1    LIG90    0.0000
     42 H19         3.7038    3.6408   -1.2012 H         1    LIG90    0.0000
     43 H20         3.3277    1.7605    2.1302 H         1    LIG90    0.0000
     44 H21         3.6025    1.3895   -0.9233 H         1    LIG90    0.0000
     45 H22         3.9810    0.2388    0.2849 H         1    LIG90    0.0000
     46 H23         5.9285    1.9218   -0.7810 H         1    LIG90    0.0000
     47 H24         6.0647    1.2830    0.8398 H         1    LIG90    0.0000
     48 H25         7.3108    5.3098   -0.5759 H         1    LIG90    0.0000
     49 H26         6.2880    4.6365   -1.9026 H         1    LIG90    0.0000
     50 H27         5.6580    5.9751   -0.8678 H         1    LIG90    0.0000
     51 H28         5.5154    2.7022    2.6472 H         1    LIG90    0.0000
     52 H29         3.8421    3.9004    3.0335 H         1    LIG90    0.0000
     53 H30         3.9637    5.3799    2.0058 H         1    LIG90    0.0000
     54 H31         2.3742    4.5472    2.2050 H         1    LIG90    0.0000
@<TRIPOS>BOND
     1    1    2 1
     2    1   24 1
     3    1   25 1
     4    1   26 1
     5    2    3 1
     6    2    8 1
     7    2   12 1
     8    3    4 1
     9    3   27 1
    10    3   28 1
    11    4    5 1
    12    4   29 1
    13    4   30 1
    14    5    6 1
    15    5    7 1
    16    6   31 1
    17    7    8 2
    18    7   32 1
    19    8    9 1
    20    9   10 1
    21    9   33 1
    22    9   34 1
    23   10   11 1
    24   10   35 1
    25   10   36 1
    26   11   12 1
    27   11   16 1
    28   11   37 1
    29   12   13 1
    30   12   38 1
    31   13   14 1
    32   13   39 1
    33   13   40 1
    34   14   15 1
    35   14   41 1
    36   14   42 1
    37   15   16 1
    38   15   19 1
    39   15   23 1
    40   16   17 1
    41   16   43 1
    42   17   18 1
    43   17   44 1
    44   17   45 1
    45   18   19 1
    46   18   46 1
    47   18   47 1
    48   19   20 1
    49   19   22 1
    50   20   21 1
    51   21   48 1
    52   21   49 1
    53   21   50 1
    54   22   51 1
    55   23   52 1
    56   23   53 1
    57   23   54 1
@<TRIPOS>SUBSTRUCTURE
     1    LIG90    1   GROUP 1   LIG 1
@<TRIPOS>MOLECULE
ZINC03647770
   41    43    1     0     0
SMALL
USER_CHARGES


@<TRIPOS>ATOM
      1 C1         -0.0166    1.3759    0.0096 C.ar      1     LIG9    0.0000
      2 C2          1.1783    2.0936    0.0021 C.ar      1     LIG9    0.0000
      3 C3          2.3808    1.4000   -0.0226 C.ar      1     LIG9    0.0000
      4 C4          2.3964    0.0207   -0.0201 C.ar      1     LIG9    0.0000
      5 C5          1.2072   -0.6851   -0.0088 C.ar      1     LIG9    0.0000
      6 C6          0.0021   -0.0041    0.0020 C.ar      1     LIG9    0.0000
      7 Cl1        -1.4913   -0.8891    0.0060 Cl        1     LIG9    0.0000
      8 S1          1.2260   -2.4470   -0.0082 S.o2      1     LIG9    0.0000
      9 O1          0.3250   -2.8631   -1.0253 O.2       1     LIG9    0.0000
     10 O2          2.5919   -2.8386    0.0064 O.2       1     LIG9    0.0000
     11 N1          0.5759   -2.9431    1.4318 N.3       1     LIG9    0.0000
     12 S2          3.9028    2.2971   -0.0763 S.o2      1     LIG9    0.0000
     13 O3          4.6790    1.8647    1.0327 O.2       1     LIG9    0.0000
     14 O4          4.3741    2.2353   -1.4155 O.2       1     LIG9    0.0000
     15 N2          3.4725    3.8817    0.2181 N.3       1     LIG9    0.0000
     16 C7          2.2211    4.3393   -0.4192 C.3       1     LIG9    0.0000
     17 N3          1.1259    3.4846    0.0324 N.3       1     LIG9    0.0000
     18 C8          2.3558    4.2457   -1.9404 C.3       1     LIG9    0.0000
     19 C9          1.1079    4.8359   -2.6001 C.3       1     LIG9    0.0000
     20 C10        -0.1154    3.9413   -2.3120 C.3       1     LIG9    0.0000
     21 C11        -0.9384    3.9893   -3.6233 C.3       1     LIG9    0.0000
     22 C12         0.1593    3.9837   -4.7161 C.3       1     LIG9    0.0000
     23 C13         1.2825    4.8629   -4.1287 C.3       1     LIG9    0.0000
     24 H1         -0.9688    1.9062    0.0215 H         1     LIG9    0.0000
     25 H2          3.3466   -0.5133   -0.0270 H         1     LIG9    0.0000
     26 H3          0.5884   -3.9730    1.4289 H         1     LIG9    0.0000
     27 H4          1.1687   -2.5551    2.1794 H         1     LIG9    0.0000
     28 H5          4.2016    4.5406   -0.0904 H         1     LIG9    0.0000
     29 H6          2.0201    5.3748   -0.1445 H         1     LIG9    0.0000
     30 H7          1.1036    3.6567    1.0477 H         1     LIG9    0.0000
     31 H8          2.4614    3.2008   -2.2322 H         1     LIG9    0.0000
     32 H9          3.2352    4.8035   -2.2623 H         1     LIG9    0.0000
     33 H10         0.9637    5.8404   -2.2023 H         1     LIG9    0.0000
     34 H11        -0.6874    4.2951   -1.4542 H         1     LIG9    0.0000
     35 H12         0.1725    2.9256   -2.0408 H         1     LIG9    0.0000
     36 H13        -1.5924    4.8592   -3.6827 H         1     LIG9    0.0000
     37 H14        -1.6360    3.1571   -3.7177 H         1     LIG9    0.0000
     38 H15        -0.2045    4.3644   -5.6704 H         1     LIG9    0.0000
     39 H16         0.5066    2.9762   -4.9451 H         1     LIG9    0.0000
     40 H17         2.2636    4.4829   -4.4135 H         1     LIG9    0.0000
     41 H18         1.2209    5.8823   -4.5096 H         1     LIG9    0.0000
@<TRIPOS>BOND
     1    1    2 ar
     2    1    6 ar
     3    1   24 1
     4    2    3 ar
     5    2   17 1
     6    3    4 ar
     7    3   12 1
     8    4    5 ar
     9    4   25 1
    10    5    6 ar
    11    5    8 1
    12    6    7 1
    13    8    9 2
    14    8   10 2
    15    8   11 1
    16   11   26 1
    17   11   27 1
    18   12   13 2
    19   12   14 2
    20   12   15 1
    21   15   16 1
    22   15   28 1
    23   16   17 1
    24   16   18 1
    25   16   29 1
    26   17   30 1
    27   18   19 1
    28   18   31 1
    29   18   32 1
    30   19   20 1
    31   19   23 1
    32   19   33 1
    33   20   21 1
    34   20   34 1
    35   20   35 1
    36   21   22 1
    37   21   36 1
    38   21   37 1
    39   22   23 1
    40   22   38 1
    41   22   39 1
    42   23   40 1
    43   23   41 1
@<TRIPOS>SUBSTRUCTURE
     1     LIG9    1   GROUP 1   LIG 1
@<TRIPOS>MOLECULE
ZINC00001227
   45    48    1     0     0
SMALL
USER_CHARGES


@<TRIPOS>ATOM
      1 C1         -2.8937    3.1177   -0.0154 C.3       1    LIG46    0.0000
      2 C2         -2.8768    1.5893    0.0525 C.3       1    LIG46    0.0000
      3 C3         -2.0918    1.1364    1.2833 C.3       1    LIG46    0.0000
      4 C4         -2.2341   -0.3650    1.4630 C.3       1    LIG46    0.0000
      5 C5         -2.0782   -1.1066    0.1627 C.ar      1    LIG46    0.0000
      6 C6         -1.9486   -2.4901    0.2219 C.ar      1    LIG46    0.0000
      7 C7         -1.8202   -3.2332   -0.9314 C.ar      1    LIG46    0.0000
      8 C8         -1.8195   -2.5983   -2.1652 C.ar      1    LIG46    0.0000
      9 C9         -1.9424   -1.2201   -2.2247 C.ar      1    LIG46    0.0000
     10 C10        -2.0666   -0.4766   -1.0607 C.ar      1    LIG46    0.0000
     11 C11        -2.1833    1.0241   -1.1915 C.3       1    LIG46    0.0000
     12 C12        -0.7540    1.5935   -1.2339 C.3       1    LIG46    0.0000
     13 C13        -0.0127    1.0858    0.0080 C.3       1    LIG46    0.0000
     14 C14         0.0320    1.1619    2.4253 C.3       1    LIG46    0.0000
     15 C15         1.3802    1.8839    2.4669 C.3       1    LIG46    0.0000
     16 C16         2.6442    1.0245    2.3978 C.3       1    LIG46    0.0000
     17 C17         2.2452    1.6939    3.7145 C.3       1    LIG46    0.0000
     18 C18        -2.9484    1.3951   -2.4635 C.3       1    LIG46    0.0000
     19 O1         -1.6985   -3.3241   -3.3078 O.3       1    LIG46    0.0000
     20 N1         -0.6906    1.6016    1.2236 N.3       1    LIG46    0.0000
     21 H1         -3.4618    3.3909   -0.9046 H         1    LIG46    0.0000
     22 H2         -3.3737    3.4719    0.8968 H         1    LIG46    0.0000
     23 H3         -1.8562    3.4453   -0.0809 H         1    LIG46    0.0000
     24 H4         -3.9045    1.2302    0.1074 H         1    LIG46    0.0000
     25 H5         -2.5106    1.5999    2.1765 H         1    LIG46    0.0000
     26 H6         -3.2282   -0.5749    1.8576 H         1    LIG46    0.0000
     27 H7         -1.4468   -0.7034    2.1366 H         1    LIG46    0.0000
     28 H8         -1.9486   -2.9913    1.1898 H         1    LIG46    0.0000
     29 H9         -1.7194   -4.3170   -0.8746 H         1    LIG46    0.0000
     30 H10        -1.9415   -0.7171   -3.1917 H         1    LIG46    0.0000
     31 H11        -0.7769    2.6832   -1.2427 H         1    LIG46    0.0000
     32 H12        -0.2417    1.2652   -2.1383 H         1    LIG46    0.0000
     33 H13         1.0271    1.4128    0.0023 H         1    LIG46    0.0000
     34 H14        -0.0443   -0.0035    0.0332 H         1    LIG46    0.0000
     35 H15        -0.5632    1.3686    3.3148 H         1    LIG46    0.0000
     36 H16         0.1876    0.0851    2.3598 H         1    LIG46    0.0000
     37 H17         1.0011    2.7440    1.9149 H         1    LIG46    0.0000
     38 H18         3.5283    0.9199    1.7689 H         1    LIG46    0.0000
     39 H19         2.9448    0.0400    2.0395 H         1    LIG46    0.0000
     40 H20         2.1194    1.4246    4.7632 H         1    LIG46    0.0000
     41 H21         2.7030    2.3047    4.4926 H         1    LIG46    0.0000
     42 H22        -2.4017    0.9631   -3.3017 H         1    LIG46    0.0000
     43 H23        -3.9478    0.9704   -2.3696 H         1    LIG46    0.0000
     44 H24        -2.9738    2.4836   -2.5141 H         1    LIG46    0.0000
     45 H25        -1.6212   -4.3128   -3.0297 H         1    LIG46    0.0000
@<TRIPOS>BOND
     1    1    2 1
     2    1   21 1
     3    1   22 1
     4    1   23 1
     5    2    3 1
     6    2   11 1
     7    2   24 1
     8    3    4 1
     9    3   20 1
    10    3   25 1
    11    4    5 1
    12    4   26 1
    13    4   27 1
    14    5    6 ar
    15    5   10 ar
    16    6    7 ar
    17    6   28 1
    18    7    8 ar
    19    7   29 1
    20    8    9 ar
    21    8   19 1
    22    9   10 ar
    23    9   30 1
    24   10   11 1
    25   11   12 1
    26   11   18 1
    27   12   13 1
    28   12   31 1
    29   12   32 1
    30   13   20 1
    31   13   33 1
    32   13   34 1
    33   14   15 1
    34   14   20 1
    35   14   35 1
    36   14   36 1
    37   15   16 1
    38   15   17 1
    39   15   37 1
    40   16   17 1
    41   16   38 1
    42   16   39 1
    43   17   40 1
    44   17   41 1
    45   18   42 1
    46   18   43 1
    47   18   44 1
    48   19   45 1
@<TRIPOS>SUBSTRUCTURE
     1    LIG46    1   GROUP 1   LIG 1
@<TRIPOS>MOLECULE
ZINC14879985
   58    61    1     0     0
SMALL
USER_CHARGES


@<TRIPOS>ATOM
      1 C1          0.8673    0.7661    0.1693 C.3       1    LIG82    0.0000
      2 N1          0.6153   -0.6758    0.2928 N.3       1    LIG82    1.0000
      3 C2          1.2531   -1.2203    1.4990 C.3       1    LIG82    0.0000
      4 C3         -0.8257   -0.9610    0.2849 C.3       1    LIG82    0.0000
      5 C4         -1.0491   -2.4618    0.0953 C.3       1    LIG82    0.0000
      6 C5         -0.4637   -2.9283   -1.2277 C.3       1    LIG82    0.0000
      7 C6         -1.2702   -2.5056   -2.4329 C.3       1    LIG82    0.0000
      8 C7         -0.4055   -1.7428   -3.4090 C.2       1    LIG82    0.0000
      9 C8          0.9076   -1.6525   -3.2361 C.3       1    LIG82    0.0000
     10 C9         -1.0694   -1.0996   -4.5630 C.ar      1    LIG82    0.0000
     11 C10        -0.4108   -0.9093   -5.7693 C.ar      1    LIG82    0.0000
     12 C11        -1.0742   -0.3103   -6.8255 C.ar      1    LIG82    0.0000
     13 C12        -2.3880    0.1001   -6.6895 C.ar      1    LIG82    0.0000
     14 C13        -3.0638   -0.0773   -5.4906 C.ar      1    LIG82    0.0000
     15 C14        -2.4077   -0.6783   -4.4120 C.ar      1    LIG82    0.0000
     16 C15        -3.0829   -0.8745   -3.1192 C.2       1    LIG82    0.0000
     17 C16        -2.5139   -1.7327   -2.1416 C.2       1    LIG82    0.0000
     18 C17        -3.1516   -1.8217   -0.9545 C.2       1    LIG82    0.0000
     19 O1         -4.2887   -1.1342   -0.7266 O.3       1    LIG82    0.0000
     20 C18        -2.5617   -2.7424    0.1041 C.3       1    LIG82    0.0000
     21 C19        -3.1155   -2.3166    1.4428 C.2       1    LIG82    0.0000
     22 O2         -4.0584   -2.9101    1.9260 O.3       1    LIG82    0.0000
     23 C20        -2.5378   -1.2298    2.1330 C.2       1    LIG82    0.0000
     24 C21        -3.0712   -0.8336    3.3690 C.2       1    LIG82    0.0000
     25 N2         -4.0386   -1.5726    3.9555 N.pl3     1    LIG82    0.0000
     26 O3         -2.6198    0.2813    3.9696 O.3       1    LIG82    0.0000
     27 C22        -1.4317   -0.5337    1.5980 C.2       1    LIG82    0.0000
     28 O4         -0.9645    0.4127    2.1987 O.3       1    LIG82    0.0000
     29 O5         -2.8315   -4.1192   -0.1675 O.3       1    LIG82    0.0000
     30 O6         -4.1255   -0.2896   -2.8843 O.3       1    LIG82    0.0000
     31 O7         -4.3521    0.3294   -5.3659 O.3       1    LIG82    0.0000
     32 O8         -0.3830   -4.3549   -1.2133 O.3       1    LIG82    0.0000
     33 H1          0.3686    1.1000   -0.7406 H         1    LIG82    0.0000
     34 H2          0.4495    1.2399    1.0576 H         1    LIG82    0.0000
     35 H3          1.9478    0.8969    0.1105 H         1    LIG82    0.0000
     36 H4          1.0262   -2.2861    1.5260 H         1    LIG82    0.0000
     37 H5          2.3232   -1.0361    1.4044 H         1    LIG82    0.0000
     38 H6          0.8249   -0.6931    2.3515 H         1    LIG82    0.0000
     39 H7         -1.2960   -0.4136   -0.5320 H         1    LIG82    0.0000
     40 H8         -0.5552   -2.9996    0.9046 H         1    LIG82    0.0000
     41 H9          0.5164   -2.4606   -1.3215 H         1    LIG82    0.0000
     42 H10        -1.6149   -3.4425   -2.8705 H         1    LIG82    0.0000
     43 H11         1.2978   -1.0590   -4.0629 H         1    LIG82    0.0000
     44 H12         1.0697   -1.1645   -2.2750 H         1    LIG82    0.0000
     45 H13         1.3010   -2.6690   -3.2459 H         1    LIG82    0.0000
     46 H14         0.6245   -1.2302   -5.8844 H         1    LIG82    0.0000
     47 H15        -0.5568   -0.1605   -7.7731 H         1    LIG82    0.0000
     48 H16        -2.8975    0.5674   -7.5322 H         1    LIG82    0.0000
     49 H17        -4.4976   -0.6046   -1.5850 H         1    LIG82    0.0000
     50 H18        -4.2678   -2.4592    2.8281 H         1    LIG82    0.0000
     51 H19        -4.4301   -1.2818    4.8627 H         1    LIG82    0.0000
     52 H20        -4.3845   -2.4267    3.4953 H         1    LIG82    0.0000
     53 H21        -1.8954    0.6815    3.3564 H         1    LIG82    0.0000
     54 H22        -1.5207    0.5284    3.0579 H         1    LIG82    0.0000
     55 H23        -2.4251   -4.3294   -1.0903 H         1    LIG82    0.0000
     56 H24        -4.4144   -0.5594   -1.9332 H         1    LIG82    0.0000
     57 H25        -4.6280    0.7375   -6.2705 H         1    LIG82    0.0000
     58 H26         0.1700   -4.6169   -0.3848 H         1    LIG82    0.0000
@<TRIPOS>BOND
     1    1    2 1
     2    1   33 1
     3    1   34 1
     4    1   35 1
     5    2    3 1
     6    2    4 1
     7    3   36 1
     8    3   37 1
     9    3   38 1
    10    4    5 1
    11    4   27 1
    12    4   39 1
    13    5    6 1
    14    5   20 1
    15    5   40 1
    16    6    7 1
    17    6   32 1
    18    6   41 1
    19    7    8 1
    20    7   17 1
    21    7   42 1
    22    8    9 1
    23    8   10 1
    24    9   43 1
    25    9   44 1
    26    9   45 1
    27   10   11 ar
    28   10   15 ar
    29   11   12 ar
    30   11   46 1
    31   12   13 ar
    32   12   47 1
    33   13   14 ar
    34   13   48 1
    35   14   15 ar
    36   14   31 1
    37   15   16 1
    38   16   17 1
    39   16   30 1
    40   17   18 2
    41   18   19 1
    42   18   20 1
    43   19   49 1
    44   20   21 1
    45   20   29 1
    46   21   22 1
    47   21   23 1
    48   22   50 1
    49   23   24 2
    50   23   27 1
    51   24   25 1
    52   24   26 1
    53   25   51 1
    54   25   52 1
    55   26   53 1
    56   27   28 1
    57   28   54 1
    58   29   55 1
    59   30   56 1
    60   31   57 1
    61   32   58 1
@<TRIPOS>SUBSTRUCTURE
     1    LIG82    1   GROUP 1   LIG 1
@<TRIPOS>MOLECULE
ZINC00389747
   47    51    1     0     0
SMALL
USER_CHARGES


@<TRIPOS>ATOM
      1 C1         -0.2153    1.4141   -0.0745 C.3       1    LIG84    0.0000
      2 C2         -0.0782    0.1114   -0.0902 C.2       1    LIG84    0.0000
      3 C3         -1.2926   -0.7753    0.0102 C.3       1    LIG84    0.0000
      4 N1         -1.3177   -1.7022   -1.1291 N.3       1    LIG84    0.0000
      5 C4         -0.1699   -2.6098   -1.0369 C.3       1    LIG84    0.0000
      6 C5         -0.1579   -3.5650   -2.2369 C.3       1    LIG84    0.0000
      7 C6         -1.4766   -4.3355   -2.2476 C.3       1    LIG84    0.0000
      8 C7         -1.6481   -5.0614   -0.9360 C.ar      1    LIG84    0.0000
      9 C8         -2.2077   -4.5563    0.2155 C.ar      1    LIG84    0.0000
     10 C9         -2.2401   -5.4171    1.2982 C.ar      1    LIG84    0.0000
     11 C10        -1.7820   -6.7182    1.1690 C.ar      1    LIG84    0.0000
     12 C11        -1.2916   -7.2400   -0.0258 C.ar      1    LIG84    0.0000
     13 C12        -1.2444   -6.3749   -1.1253 C.ar      1    LIG84    0.0000
     14 O1         -0.8978   -6.5770   -2.4147 O.3       1    LIG84    0.0000
     15 C13        -1.4528   -5.4998   -3.2278 C.3       1    LIG84    0.0000
     16 C14        -2.8321   -5.9204   -3.6420 C.2       1    LIG84    0.0000
     17 O2         -2.9993   -7.0571   -4.0139 O.3       1    LIG84    0.0000
     18 C15        -4.0126   -4.9969   -3.6157 C.3       1    LIG84    0.0000
     19 C16        -3.9662   -4.1258   -2.3586 C.3       1    LIG84    0.0000
     20 C17        -2.6424   -3.3641   -2.3407 C.3       1    LIG84    0.0000
     21 C18        -2.5801   -2.4492   -1.1149 C.3       1    LIG84    0.0000
     22 C19        -2.7615   -3.1683    0.2110 C.3       1    LIG84    0.0000
     23 O3         -2.5223   -2.5856   -3.5330 O.3       1    LIG84    0.0000
     24 O4         -0.8769   -8.5317   -0.1197 O.3       1    LIG84    0.0000
     25 H1          0.7842    1.8408   -0.1581 H         1    LIG84    0.0000
     26 H2         -0.8415    1.6789   -0.9265 H         1    LIG84    0.0000
     27 H3         -0.6887    1.6733    0.8725 H         1    LIG84    0.0000
     28 H4          0.9142   -0.3312   -0.1759 H         1    LIG84    0.0000
     29 H5         -2.2036   -0.1768    0.0113 H         1    LIG84    0.0000
     30 H6         -1.2405   -1.3595    0.9290 H         1    LIG84    0.0000
     31 H7         -0.2851   -3.1888   -0.1206 H         1    LIG84    0.0000
     32 H8          0.7474   -2.0225   -0.9945 H         1    LIG84    0.0000
     33 H9          0.6800   -4.2578   -2.1595 H         1    LIG84    0.0000
     34 H10        -0.0497   -3.0010   -3.1634 H         1    LIG84    0.0000
     35 H11        -2.6274   -5.0704    2.2562 H         1    LIG84    0.0000
     36 H12        -1.8065   -7.3655    2.0456 H         1    LIG84    0.0000
     37 H13        -0.9072   -5.2503   -4.1378 H         1    LIG84    0.0000
     38 H14        -3.9970   -7.1526   -4.2513 H         1    LIG84    0.0000
     39 H15        -4.9207   -5.5996   -3.6013 H         1    LIG84    0.0000
     40 H16        -3.9969   -4.3691   -4.5066 H         1    LIG84    0.0000
     41 H17        -4.0461   -4.7513   -1.4695 H         1    LIG84    0.0000
     42 H18        -4.7978   -3.4212   -2.3650 H         1    LIG84    0.0000
     43 H19        -3.4284   -1.7689   -1.1904 H         1    LIG84    0.0000
     44 H20        -2.2119   -2.6068    0.9665 H         1    LIG84    0.0000
     45 H21        -3.8296   -3.2407    0.4159 H         1    LIG84    0.0000
     46 H22        -2.5694   -3.2407   -4.3264 H         1    LIG84    0.0000
     47 H23        -1.0077   -8.9582    0.8087 H         1    LIG84    0.0000
@<TRIPOS>BOND
     1    1    2 1
     2    1   25 1
     3    1   26 1
     4    1   27 1
     5    2    3 1
     6    2   28 1
     7    3    4 1
     8    3   29 1
     9    3   30 1
    10    4    5 1
    11    4   21 1
    12    5    6 1
    13    5   31 1
    14    5   32 1
    15    6    7 1
    16    6   33 1
    17    6   34 1
    18    7    8 1
    19    7   15 1
    20    7   20 1
    21    8    9 ar
    22    8   13 ar
    23    9   10 ar
    24    9   22 1
    25   10   11 ar
    26   10   35 1
    27   11   12 ar
    28   11   36 1
    29   12   13 ar
    30   12   24 1
    31   13   14 1
    32   14   15 1
    33   15   16 1
    34   15   37 1
    35   16   17 1
    36   16   18 1
    37   17   38 1
    38   18   19 1
    39   18   39 1
    40   18   40 1
    41   19   20 1
    42   19   41 1
    43   19   42 1
    44   20   21 1
    45   20   23 1
    46   21   22 1
    47   21   43 1
    48   22   44 1
    49   22   45 1
    50   23   46 1
    51   24   47 1
@<TRIPOS>SUBSTRUCTURE
     1    LIG84    1   GROUP 1   LIG 1
@<TRIPOS>MOLECULE
ZINC01530906
   38    39    1     0     0
SMALL
USER_CHARGES


@<TRIPOS>ATOM
      1 C1         -0.2068    1.5525   -0.0414 C.3       1    LIG94    0.0000
      2 N1         -0.0688    0.0941   -0.0598 N.pl3     1    LIG94    0.0000
      3 C2         -1.2389   -0.8049    0.0034 C.3       1    LIG94    0.0000
      4 N2         -1.0989   -1.6740    1.1692 N.3       1    LIG94    0.0000
      5 C3          0.0567   -2.3984    1.4492 C.ar      1    LIG94    0.0000
      6 C4         -0.0354   -3.5167    2.2764 C.ar      1    LIG94    0.0000
      7 C5          1.0945   -4.2461    2.5863 C.ar      1    LIG94    0.0000
      8 C6          2.3272   -3.8715    2.0799 C.ar      1    LIG94    0.0000
      9 C7          2.4246   -2.7667    1.2537 C.ar      1    LIG94    0.0000
     10 C8          1.2958   -2.0410    0.9349 C.ar      1    LIG94    0.0000
     11 S1          1.4193   -0.6533   -0.1605 S.o2      1    LIG94    0.0000
     12 O1          1.5359   -1.1702   -1.4790 O.2       1    LIG94    0.0000
     13 O2          2.3708    0.2385    0.4040 O.2       1    LIG94    0.0000
     14 S2          3.7684   -4.7996    2.4872 S.o2      1    LIG94    0.0000
     15 O3          3.4490   -6.1657    2.2617 O.2       1    LIG94    0.0000
     16 O4          4.8606   -4.1565    1.8448 O.2       1    LIG94    0.0000
     17 N3          4.0133   -4.6336    4.1166 N.3       1    LIG94    0.0000
     18 Cl1         0.9695   -5.6384    3.6156 Cl        1    LIG94    0.0000
     19 C9         -1.3039   -1.6530   -1.2684 C.3       1    LIG94    0.0000
     20 S3         -2.8291   -2.6350   -1.2631 S.3       1    LIG94    0.0000
     21 C10        -2.7541   -3.5705   -2.8155 C.3       1    LIG94    0.0000
     22 C11        -3.9978   -4.4529   -2.9398 C.3       1    LIG94    0.0000
     23 F1         -5.1425   -3.6486   -2.9349 F         1    LIG94    0.0000
     24 F2         -3.9400   -5.1744   -4.1370 F         1    LIG94    0.0000
     25 F3         -4.0483   -5.3424   -1.8612 F         1    LIG94    0.0000
     26 H1          0.7991    1.9685   -0.0982 H         1    LIG94    0.0000
     27 H2         -0.8083    1.8267   -0.9081 H         1    LIG94    0.0000
     28 H3         -0.7013    1.8140    0.8941 H         1    LIG94    0.0000
     29 H4         -2.1547   -0.2195    0.0857 H         1    LIG94    0.0000
     30 H5         -1.8078   -2.4109    1.0450 H         1    LIG94    0.0000
     31 H6         -1.0028   -3.8160    2.6797 H         1    LIG94    0.0000
     32 H7          3.3941   -2.4692    0.8542 H         1    LIG94    0.0000
     33 H8          4.8562   -5.1771    4.3514 H         1    LIG94    0.0000
     34 H9          4.1422   -3.6284    4.3009 H         1    LIG94    0.0000
     35 H10        -0.4552   -2.3281   -1.1585 H         1    LIG94    0.0000
     36 H11        -1.1423   -1.0031   -2.1285 H         1    LIG94    0.0000
     37 H12        -1.8710   -4.1899   -2.9724 H         1    LIG94    0.0000
     38 H13        -2.8616   -2.8739   -3.6469 H         1    LIG94    0.0000
@<TRIPOS>BOND
     1    1    2 1
     2    1   26 1
     3    1   27 1
     4    1   28 1
     5    2    3 1
     6    2   11 1
     7    3    4 1
     8    3   19 1
     9    3   29 1
    10    4    5 1
    11    4   30 1
    12    5    6 ar
    13    5   10 ar
    14    6    7 ar
    15    6   31 1
    16    7    8 ar
    17    7   18 1
    18    8    9 ar
    19    8   14 1
    20    9   10 ar
    21    9   32 1
    22   10   11 1
    23   11   12 2
    24   11   13 2
    25   14   15 2
    26   14   16 2
    27   14   17 1
    28   17   33 1
    29   17   34 1
    30   19   20 1
    31   19   35 1
    32   19   36 1
    33   20   21 1
    34   21   22 1
    35   21   37 1
    36   21   38 1
    37   22   23 1
    38   22   24 1
    39   22   25 1
@<TRIPOS>SUBSTRUCTURE
     1    LIG94    1   GROUP 1   LIG 1
@<TRIPOS>MOLECULE
ZINC19632912
   34    36    1     0     0
SMALL
USER_CHARGES


@<TRIPOS>ATOM
      1 C1         -0.0187    1.5258    0.0104 C.3       1    LIG20    0.0000
      2 C2          0.0021   -0.0041    0.0020 C.3       1    LIG20    0.0000
      3 C3          0.7182   -0.4975   -1.2568 C.3       1    LIG20    0.0000
      4 C4          0.7421   -0.5109    1.2415 C.3       1    LIG20    0.0000
      5 N1         -0.0083   -0.1401    2.4439 N.pl3     1    LIG20    0.0000
      6 C5          0.1938    0.9657    3.2115 C.ar      1    LIG20    0.0000
      7 N2         -0.6538    0.9774    4.2002 N.ar      1    LIG20    0.0000
      8 C6         -1.4490   -0.1168    4.1276 C.ar      1    LIG20    0.0000
      9 C7         -1.0451   -0.8378    2.9992 C.ar      1    LIG20    0.0000
     10 C8         -1.7537   -2.0712    2.6877 C.ar      1    LIG20    0.0000
     11 C9         -1.4158   -2.8579    1.5817 C.ar      1    LIG20    0.0000
     12 C10        -2.1094   -4.0060    1.3318 C.ar      1    LIG20    0.0000
     13 C11        -3.1500   -4.4032    2.1649 C.ar      1    LIG20    0.0000
     14 C12        -3.5035   -3.6586    3.2504 C.ar      1    LIG20    0.0000
     15 C13        -2.8122   -2.4722    3.5389 C.ar      1    LIG20    0.0000
     16 N3         -3.1422   -1.7242    4.6022 N.ar      1    LIG20    0.0000
     17 C14        -2.5158   -0.6117    4.9107 C.ar      1    LIG20    0.0000
     18 N4         -2.9214    0.1029    6.0254 N.pl3     1    LIG20    0.0000
     19 H1         -0.5355    1.8325    0.9198 H         1    LIG20    0.0000
     20 H2          1.0192    1.8587    0.0022 H         1    LIG20    0.0000
     21 H3         -0.5528    1.8422   -0.8856 H         1    LIG20    0.0000
     22 H4         -1.0205   -0.3814    0.0098 H         1    LIG20    0.0000
     23 H5          0.7099   -1.5869   -1.2219 H         1    LIG20    0.0000
     24 H6          0.1601   -0.1152   -2.1115 H         1    LIG20    0.0000
     25 H7          1.7321   -0.0987   -1.2237 H         1    LIG20    0.0000
     26 H8          1.7477   -0.0944    1.2992 H         1    LIG20    0.0000
     27 H9          0.8008   -1.5988    1.2089 H         1    LIG20    0.0000
     28 H10         0.9514    1.7272    3.0264 H         1    LIG20    0.0000
     29 H11        -0.6022   -2.5552    0.9225 H         1    LIG20    0.0000
     30 H12        -1.8451   -4.6186    0.4699 H         1    LIG20    0.0000
     31 H13        -3.6910   -5.3239    1.9463 H         1    LIG20    0.0000
     32 H14        -4.3215   -3.9841    3.8930 H         1    LIG20    0.0000
     33 H15        -3.6977   -0.2453    6.6060 H         1    LIG20    0.0000
     34 H16        -2.4468    0.9826    6.2739 H         1    LIG20    0.0000
@<TRIPOS>BOND
     1    1    2 1
     2    1   19 1
     3    1   20 1
     4    1   21 1
     5    2    3 1
     6    2    4 1
     7    2   22 1
     8    3   23 1
     9    3   24 1
    10    3   25 1
    11    4    5 1
    12    4   26 1
    13    4   27 1
    14    5    6 ar
    15    5    9 ar
    16    6    7 ar
    17    6   28 1
    18    7    8 ar
    19    8    9 ar
    20    8   17 ar
    21    9   10 ar
    22   10   11 ar
    23   10   15 ar
    24   11   12 ar
    25   11   29 1
    26   12   13 ar
    27   12   30 1
    28   13   14 ar
    29   13   31 1
    30   14   15 ar
    31   14   32 1
    32   15   16 ar
    33   16   17 ar
    34   17   18 1
    35   18   33 1
    36   18   34 1
@<TRIPOS>SUBSTRUCTURE
     1    LIG20    1   GROUP 1   LIG 1
@<TRIPOS>MOLECULE
ZINC12503102
   33    35    1     0     0
SMALL
USER_CHARGES


@<TRIPOS>ATOM
      1 C1          0.6929    1.3538   -0.6306 C.3       1    LIG81    0.0000
      2 N1          0.2813    0.0127   -0.2084 N.pl3     1    LIG81    0.0000
      3 C2         -0.3034   -0.8721   -1.1345 C.2       1    LIG81    0.0000
      4 C3         -0.1716   -2.2409   -1.0492 C.2       1    LIG81    0.0000
      5 C4          0.5535   -2.8515    0.0417 C.ar      1    LIG81    0.0000
      6 C5          0.9419   -2.1943    1.2183 C.ar      1    LIG81    0.0000
      7 C6          1.6266   -2.9477    2.1419 C.ar      1    LIG81    0.0000
      8 C7          1.8929   -4.2585    1.8888 C.ar      1    LIG81    0.0000
      9 S1          1.1608   -4.4939    0.2748 S.2       1    LIG81    0.0000
     10 S2          0.5092   -0.4756    1.3692 S.o2      1    LIG81    0.0000
     11 O1         -0.7564   -0.4195    2.0130 O.2       1    LIG81    0.0000
     12 O2          1.6569    0.2051    1.8577 O.2       1    LIG81    0.0000
     13 O3         -0.7297   -3.0262   -2.0025 O.3       1    LIG81    0.0000
     14 C8         -1.0592   -0.3323   -2.1983 C.2       1    LIG81    0.0000
     15 O4         -1.0388   -0.8673   -3.2931 O.2       1    LIG81    0.0000
     16 N2         -1.8030    0.7745   -2.0028 N.am      1    LIG81    0.0000
     17 C9         -2.5949    1.2723   -3.0343 C.ar      1    LIG81    0.0000
     18 C10        -2.3165    0.9168   -4.3498 C.ar      1    LIG81    0.0000
     19 C11        -3.1115    1.4182   -5.3648 C.ar      1    LIG81    0.0000
     20 C12        -4.1621    2.2615   -5.0284 C.ar      1    LIG81    0.0000
     21 C13        -4.3810    2.5725   -3.7012 C.ar      1    LIG81    0.0000
     22 N3         -3.6092    2.0753   -2.7535 N.ar      1    LIG81    0.0000
     23 H1          1.1129    1.8487    0.2451 H         1    LIG81    0.0000
     24 H2          1.4349    1.2261   -1.4188 H         1    LIG81    0.0000
     25 H3         -0.2005    1.8618   -0.9936 H         1    LIG81    0.0000
     26 H4          1.9564   -2.4954    3.0772 H         1    LIG81    0.0000
     27 H5          2.4191   -4.9814    2.5122 H         1    LIG81    0.0000
     28 H6         -1.1916   -2.3993   -2.6767 H         1    LIG81    0.0000
     29 H7         -1.7857    1.2521   -1.0904 H         1    LIG81    0.0000
     30 H8         -1.4832    0.2522   -4.5779 H         1    LIG81    0.0000
     31 H9         -2.9176    1.1572   -6.4052 H         1    LIG81    0.0000
     32 H10        -4.8074    2.6737   -5.8042 H         1    LIG81    0.0000
     33 H11        -5.2020    3.2373   -3.4328 H         1    LIG81    0.0000
@<TRIPOS>BOND
     1    1    2 1
     2    1   23 1
     3    1   24 1
     4    1   25 1
     5    2    3 1
     6    2   10 1
     7    3    4 2
     8    3   14 1
     9    4    5 1
    10    4   13 1
    11    5    6 ar
    12    5    9 ar
    13    6    7 ar
    14    6   10 1
    15    7    8 ar
    16    7   26 1
    17    8    9 ar
    18    8   27 1
    19   10   11 2
    20   10   12 2
    21   13   28 1
    22   14   15 2
    23   14   16 am
    24   16   17 1
    25   16   29 1
    26   17   18 ar
    27   17   22 ar
    28   18   19 ar
    29   18   30 1
    30   19   20 ar
    31   19   31 1
    32   20   21 ar
    33   20   32 1
    34   21   22 ar
    35   21   33 1
@<TRIPOS>SUBSTRUCTURE
     1    LIG81    1   GROUP 1   LIG 1
@<TRIPOS>MOLECULE
ZINC00000633
   41    43    1     0     0
SMALL
USER_CHARGES


@<TRIPOS>ATOM
      1 C1         -3.5827    6.3418   -3.6352 C.ar      1    LIG57    0.0000
      2 C2         -2.6014    7.1399   -3.0776 C.ar      1    LIG57    0.0000
      3 C3         -1.9511    6.7339   -1.9273 C.ar      1    LIG57    0.0000
      4 C4         -2.2824    5.5299   -1.3344 C.ar      1    LIG57    0.0000
      5 C5         -3.2601    4.7293   -1.8949 C.ar      1    LIG57    0.0000
      6 C6         -3.9134    5.1374   -3.0428 C.ar      1    LIG57    0.0000
      7 C7         -1.5736    5.0873   -0.0803 C.3       1    LIG57    0.0000
      8 C8         -2.3196    5.5980    1.1253 C.ar      1    LIG57    0.0000
      9 C9         -3.3221    4.8337    1.6926 C.ar      1    LIG57    0.0000
     10 C10        -4.0035    5.3002    2.8012 C.ar      1    LIG57    0.0000
     11 C11        -3.6886    6.5350    3.3370 C.ar      1    LIG57    0.0000
     12 C12        -2.6897    7.3016    2.7665 C.ar      1    LIG57    0.0000
     13 C13        -2.0054    6.8331    1.6605 C.ar      1    LIG57    0.0000
     14 C14        -1.5200    3.5588   -0.0372 C.3       1    LIG57    0.0000
     15 C15        -0.8011    3.1098    1.2370 C.3       1    LIG57    0.0000
     16 C16        -0.7310    1.5804    1.2666 C.3       1    LIG57    0.0000
     17 C17        -0.0127    1.0858    0.0080 C.3       1    LIG57    0.0000
     18 C18        -0.7544    1.5936   -1.2306 C.3       1    LIG57    0.0000
     19 O1         -0.2439    5.6109   -0.0747 O.3       1    LIG57    0.0000
     20 N1         -0.7879    3.0685   -1.2206 N.3       1    LIG57    0.0000
     21 H1         -4.0957    6.6622   -4.5420 H         1    LIG57    0.0000
     22 H2         -2.3404    8.0894   -3.5450 H         1    LIG57    0.0000
     23 H3         -1.1771    7.3631   -1.4878 H         1    LIG57    0.0000
     24 H4         -3.5159    3.7763   -1.4318 H         1    LIG57    0.0000
     25 H5         -4.6893    4.5095   -3.4808 H         1    LIG57    0.0000
     26 H6         -3.5753    3.8632    1.2658 H         1    LIG57    0.0000
     27 H7         -4.7891    4.6944    3.2529 H         1    LIG57    0.0000
     28 H8         -4.2279    6.9042    4.2093 H         1    LIG57    0.0000
     29 H9         -2.4416    8.2754    3.1887 H         1    LIG57    0.0000
     30 H10        -1.2180    7.4377    1.2104 H         1    LIG57    0.0000
     31 H11        -2.5317    3.1531   -0.0398 H         1    LIG57    0.0000
     32 H12        -1.3486    3.4668    2.1093 H         1    LIG57    0.0000
     33 H13         0.2078    3.5220    1.2512 H         1    LIG57    0.0000
     34 H14        -1.7395    1.1682    1.2984 H         1    LIG57    0.0000
     35 H15        -0.1838    1.2560    2.1518 H         1    LIG57    0.0000
     36 H16         0.0043   -0.0040    0.0017 H         1    LIG57    0.0000
     37 H17         1.0102    1.4623    0.0000 H         1    LIG57    0.0000
     38 H18        -1.7744    1.2100   -1.2567 H         1    LIG57    0.0000
     39 H19        -0.2196    1.2770   -2.1261 H         1    LIG57    0.0000
     40 H20        -0.3243    6.6373   -0.1043 H         1    LIG57    0.0000
     41 H21         0.1777    3.4256   -1.1893 H         1    LIG57    0.0000
@<TRIPOS>BOND
     1    1    2 ar
     2    1    6 ar
     3    1   21 1
     4    2    3 ar
     5    2   22 1
     6    3    4 ar
     7    3   23 1
     8    4    5 ar
     9    4    7 1
    10    5    6 ar
    11    5   24 1
    12    6   25 1
    13    7    8 1
    14    7   14 1
    15    7   19 1
    16    8    9 ar
    17    8   13 ar
    18    9   10 ar
    19    9   26 1
    20   10   11 ar
    21   10   27 1
    22   11   12 ar
    23   11   28 1
    24   12   13 ar
    25   12   29 1
    26   13   30 1
    27   14   15 1
    28   14   20 1
    29   14   31 1
    30   15   16 1
    31   15   32 1
    32   15   33 1
    33   16   17 1
    34   16   34 1
    35   16   35 1
    36   17   18 1
    37   17   36 1
    38   17   37 1
    39   18   20 1
    40   18   38 1
    41   18   39 1
    42   19   40 1
    43   20   41 1
@<TRIPOS>SUBSTRUCTURE
     1    LIG57    1   GROUP 1   LIG 1
@<TRIPOS>MOLECULE
ZINC03995599
   78    79    1     0     0
SMALL
USER_CHARGES


@<TRIPOS>ATOM
      1 C1         -4.6735    1.1423    4.1239 C.3       1    LIG34    0.0000
      2 C2         -4.8227   -0.3214    3.7040 C.3       1    LIG34    0.0000
      3 N1         -3.8668   -0.6226    2.6301 N.4       1    LIG34    0.0000
      4 C3         -4.0100   -2.0280    2.2269 C.3       1    LIG34    0.0000
      5 C4         -3.1315   -2.2999    1.0042 C.3       1    LIG34    0.0000
      6 C5         -4.1353    0.2473    1.4772 C.3       1    LIG34    0.0000
      7 C6         -5.5599    0.0034    0.9752 C.3       1    LIG34    0.0000
      8 N2         -5.8276    0.8710   -0.1745 N.am      1    LIG34    0.0000
      9 C7         -7.0281    0.8284   -0.7858 C.2       1    LIG34    0.0000
     10 O1         -7.8871    0.0714   -0.3838 O.2       1    LIG34    0.0000
     11 C8         -7.3013    1.7134   -1.9586 C.2       1    LIG34    0.0000
     12 O2         -6.4423    2.4705   -2.3606 O.2       1    LIG34    0.0000
     13 N3         -8.5017    1.6708   -2.5699 N.am      1    LIG34    0.0000
     14 C9         -8.7695    2.5384   -3.7196 C.3       1    LIG34    0.0000
     15 C10       -10.1940    2.2945   -4.2217 C.3       1    LIG34    0.0000
     16 N4        -10.4626    3.1645   -5.3745 N.4       1    LIG34    0.0000
     17 C11       -10.3193    4.5698   -4.9714 C.3       1    LIG34    0.0000
     18 C12       -11.3150    4.8835   -3.8528 C.3       1    LIG34    0.0000
     19 C13        -9.5066    2.8632   -6.4484 C.3       1    LIG34    0.0000
     20 C14        -9.5426    1.3653   -6.7580 C.3       1    LIG34    0.0000
     21 C15       -11.8303    2.9303   -5.8566 C.3       1    LIG34    0.0000
     22 C16       -12.1630    3.9335   -6.9308 C.ar      1    LIG34    0.0000
     23 C17       -12.7133    5.1548   -6.5897 C.ar      1    LIG34    0.0000
     24 C18       -13.0184    6.0750   -7.5749 C.ar      1    LIG34    0.0000
     25 C19       -12.7734    5.7746   -8.9021 C.ar      1    LIG34    0.0000
     26 C20       -12.2232    4.5540   -9.2443 C.ar      1    LIG34    0.0000
     27 C21       -11.9123    3.6346   -8.2580 C.ar      1    LIG34    0.0000
     28 Cl1       -11.2150    2.1037   -8.6866 Cl        1    LIG34    0.0000
     29 C22        -2.4990   -0.3885    3.1121 C.3       1    LIG34    0.0000
     30 C23        -2.2785   -1.1562    4.3900 C.ar      1    LIG34    0.0000
     31 C24        -2.5856   -0.5763    5.6067 C.ar      1    LIG34    0.0000
     32 C25        -2.3834   -1.2803    6.7788 C.ar      1    LIG34    0.0000
     33 C26        -1.8738   -2.5649    6.7353 C.ar      1    LIG34    0.0000
     34 C27        -1.5664   -3.1457    5.5196 C.ar      1    LIG34    0.0000
     35 C28        -1.7739   -2.4435    4.3454 C.ar      1    LIG34    0.0000
     36 Cl2        -1.3941   -3.1748    2.8175 Cl        1    LIG34    0.0000
     37 H1         -5.3978    1.3213    4.9185 H         1    LIG34    0.0000
     38 H2         -3.6489    1.2708    4.4730 H         1    LIG34    0.0000
     39 H3         -4.8805    1.7494    3.2426 H         1    LIG34    0.0000
     40 H4         -5.8348   -0.5298    3.3573 H         1    LIG34    0.0000
     41 H5         -4.5885   -0.9670    4.5505 H         1    LIG34    0.0000
     42 H6         -5.0551   -2.1962    1.9669 H         1    LIG34    0.0000
     43 H7         -3.7344   -2.6740    3.0604 H         1    LIG34    0.0000
     44 H8         -3.2679   -3.3487    0.7406 H         1    LIG34    0.0000
     45 H9         -3.4741   -1.6350    0.2114 H         1    LIG34    0.0000
     46 H10        -2.1035   -2.0859    1.2965 H         1    LIG34    0.0000
     47 H11        -3.4250   -0.0105    0.6916 H         1    LIG34    0.0000
     48 H12        -3.9936    1.2883    1.7678 H         1    LIG34    0.0000
     49 H13        -6.2936    0.2008    1.7567 H         1    LIG34    0.0000
     50 H14        -5.6544   -1.0297    0.6409 H         1    LIG34    0.0000
     51 H15        -5.0984    1.5135   -0.5157 H         1    LIG34    0.0000
     52 H16        -9.2308    1.0282   -2.2287 H         1    LIG34    0.0000
     53 H17        -8.0592    2.2785   -4.5045 H         1    LIG34    0.0000
     54 H18        -8.6256    3.5792   -3.4294 H         1    LIG34    0.0000
     55 H19       -10.9262    2.4935   -3.4391 H         1    LIG34    0.0000
     56 H20       -10.2891    1.2607   -4.5540 H         1    LIG34    0.0000
     57 H21       -10.5417    5.1906   -5.8393 H         1    LIG34    0.0000
     58 H22        -9.2944    4.7514   -4.6479 H         1    LIG34    0.0000
     59 H23       -11.1748    5.9309   -3.5858 H         1    LIG34    0.0000
     60 H24       -12.3120    4.6970   -4.2520 H         1    LIG34    0.0000
     61 H25       -11.0804    4.2185   -3.0216 H         1    LIG34    0.0000
     62 H26        -8.5119    3.1367   -6.0966 H         1    LIG34    0.0000
     63 H27        -9.7550    3.4531   -7.3307 H         1    LIG34    0.0000
     64 H28        -8.8219    1.1874   -7.5562 H         1    LIG34    0.0000
     65 H29        -9.2686    0.8437   -5.8410 H         1    LIG34    0.0000
     66 H30       -10.5598    1.1288   -7.0703 H         1    LIG34    0.0000
     67 H31       -12.5171    3.0539   -5.0192 H         1    LIG34    0.0000
     68 H32       -11.9095    1.9148   -6.2446 H         1    LIG34    0.0000
     69 H33       -12.9067    5.3922   -5.5436 H         1    LIG34    0.0000
     70 H34       -13.4523    7.0379   -7.3054 H         1    LIG34    0.0000
     71 H35       -13.0143    6.5007   -9.6786 H         1    LIG34    0.0000
     72 H36       -12.0342    4.3155  -10.2910 H         1    LIG34    0.0000
     73 H37        -2.3786    0.6777    3.3038 H         1    LIG34    0.0000
     74 H38        -1.7866   -0.7033    2.3496 H         1    LIG34    0.0000
     75 H39        -2.9873    0.4364    5.6417 H         1    LIG34    0.0000
     76 H40        -2.6258   -0.8226    7.7379 H         1    LIG34    0.0000
     77 H41        -1.7145   -3.1196    7.6600 H         1    LIG34    0.0000
     78 H42        -1.1606   -4.1568    5.4856 H         1    LIG34    0.0000
@<TRIPOS>BOND
     1    1    2 1
     2    1   37 1
     3    1   38 1
     4    1   39 1
     5    2    3 1
     6    2   40 1
     7    2   41 1
     8    3    4 1
     9    3    6 1
    10    3   29 1
    11    4    5 1
    12    4   42 1
    13    4   43 1
    14    5   44 1
    15    5   45 1
    16    5   46 1
    17    6    7 1
    18    6   47 1
    19    6   48 1
    20    7    8 1
    21    7   49 1
    22    7   50 1
    23    8    9 am
    24    8   51 1
    25    9   10 2
    26    9   11 1
    27   11   12 2
    28   11   13 am
    29   13   14 1
    30   13   52 1
    31   14   15 1
    32   14   53 1
    33   14   54 1
    34   15   16 1
    35   15   55 1
    36   15   56 1
    37   16   17 1
    38   16   19 1
    39   16   21 1
    40   17   18 1
    41   17   57 1
    42   17   58 1
    43   18   59 1
    44   18   60 1
    45   18   61 1
    46   19   20 1
    47   19   62 1
    48   19   63 1
    49   20   64 1
    50   20   65 1
    51   20   66 1
    52   21   22 1
    53   21   67 1
    54   21   68 1
    55   22   23 ar
    56   22   27 ar
    57   23   24 ar
    58   23   69 1
    59   24   25 ar
    60   24   70 1
    61   25   26 ar
    62   25   71 1
    63   26   27 ar
    64   26   72 1
    65   27   28 1
    66   29   30 1
    67   29   73 1
    68   29   74 1
    69   30   31 ar
    70   30   35 ar
    71   31   32 ar
    72   31   75 1
    73   32   33 ar
    74   32   76 1
    75   33   34 ar
    76   33   77 1
    77   34   35 ar
    78   34   78 1
    79   35   36 1
@<TRIPOS>SUBSTRUCTURE
     1    LIG34    1   GROUP 1   LIG 1
@<TRIPOS>MOLECULE
ZINC02038967
   37    38    1     0     0
SMALL
USER_CHARGES


@<TRIPOS>ATOM
      1 C1         -9.2320   -2.6611   -1.0277 C.3       1   LIG101    0.0000
      2 C2         -8.2579   -1.4831   -1.0942 C.3       1   LIG101    0.0000
      3 C3         -8.9779   -0.2572   -1.6595 C.3       1   LIG101    0.0000
      4 C4         -7.7415   -1.1683    0.3112 C.3       1   LIG101    0.0000
      5 C5         -6.8972   -2.3391    0.8185 C.3       1   LIG101    0.0000
      6 N1         -5.6883   -2.4593    0.0072 N.3       1   LIG101    0.0000
      7 C6         -4.6477   -1.5351    0.0427 C.ar      1   LIG101    0.0000
      8 C7         -3.7708   -1.4693   -1.0389 C.ar      1   LIG101    0.0000
      9 C8         -2.7175   -0.5775   -1.0259 C.ar      1   LIG101    0.0000
     10 C9         -2.5198    0.2523    0.0643 C.ar      1   LIG101    0.0000
     11 C10        -3.3915    0.1988    1.1367 C.ar      1   LIG101    0.0000
     12 C11        -4.4486   -0.6871    1.1239 C.ar      1   LIG101    0.0000
     13 S1         -5.5697   -0.7390    2.4895 S.o2      1   LIG101    0.0000
     14 O1         -4.7949   -0.9922    3.6535 O.2       1   LIG101    0.0000
     15 O2         -6.4275    0.3871    2.3655 O.2       1   LIG101    0.0000
     16 N2         -6.5035   -2.0951    2.2210 N.3       1   LIG101    0.0000
     17 S2         -1.1653    1.3790    0.0826 S.o2      1   LIG101    0.0000
     18 O3         -1.2229    2.0633    1.3267 O.2       1   LIG101    0.0000
     19 O4         -1.1876    2.0611   -1.1638 O.2       1   LIG101    0.0000
     20 N3          0.2226    0.4758    0.1031 N.3       1   LIG101    0.0000
     21 Cl1        -1.6329   -0.5003   -2.3792 Cl        1   LIG101    0.0000
     22 H1         -8.6799   -3.5086   -0.6214 H         1   LIG101    0.0000
     23 H2        -10.0514   -2.3606   -0.3747 H         1   LIG101    0.0000
     24 H3         -9.5733   -2.8502   -2.0455 H         1   LIG101    0.0000
     25 H4         -7.4188   -1.7416   -1.7401 H         1   LIG101    0.0000
     26 H5         -8.2505    0.5541   -1.6891 H         1   LIG101    0.0000
     27 H6         -9.3275   -0.5246   -2.6567 H         1   LIG101    0.0000
     28 H7         -9.8056   -0.0350   -0.9859 H         1   LIG101    0.0000
     29 H8         -8.5862   -1.0120    0.9821 H         1   LIG101    0.0000
     30 H9         -7.1304   -0.2663    0.2801 H         1   LIG101    0.0000
     31 H10        -7.4832   -3.2557    0.7508 H         1   LIG101    0.0000
     32 H11        -6.0106   -2.4051   -0.9696 H         1   LIG101    0.0000
     33 H12        -3.9174   -2.1243   -1.8977 H         1   LIG101    0.0000
     34 H13        -3.2430    0.8572    1.9926 H         1   LIG101    0.0000
     35 H14        -5.8882   -2.9004    2.4047 H         1   LIG101    0.0000
     36 H15         1.0122    1.1372    0.1138 H         1   LIG101    0.0000
     37 H16         0.1943   -0.1005    0.9563 H         1   LIG101    0.0000
@<TRIPOS>BOND
     1    1    2 1
     2    1   22 1
     3    1   23 1
     4    1   24 1
     5    2    3 1
     6    2    4 1
     7    2   25 1
     8    3   26 1
     9    3   27 1
    10    3   28 1
    11    4    5 1
    12    4   29 1
    13    4   30 1
    14    5    6 1
    15    5   16 1
    16    5   31 1
    17    6    7 1
    18    6   32 1
    19    7    8 ar
    20    7   12 ar
    21    8    9 ar
    22    8   33 1
    23    9   10 ar
    24    9   21 1
    25   10   11 ar
    26   10   17 1
    27   11   12 ar
    28   11   34 1
    29   12   13 1
    30   13   14 2
    31   13   15 2
    32   13   16 1
    33   16   35 1
    34   17   18 2
    35   17   19 2
    36   17   20 1
    37   20   36 1
    38   20   37 1
@<TRIPOS>SUBSTRUCTURE
     1   LIG101    1   GROUP 1   LIG 1
@<TRIPOS>MOLECULE
ZINC01530694
   56    57    1     0     0
SMALL
USER_CHARGES


@<TRIPOS>ATOM
      1 C1          0.5966    0.8718    0.2636 C.3       1   LIG102    0.0000
      2 C2          0.6485   -0.6493    0.1073 C.3       1   LIG102    0.0000
      3 O1          1.1703   -0.9782   -1.1817 O.3       1   LIG102    0.0000
      4 C3          1.1908   -2.2947   -1.5220 C.ar      1   LIG102    0.0000
      5 C4          0.6287   -3.2388   -0.6779 C.ar      1   LIG102    0.0000
      6 C5          0.6499   -4.5767   -1.0255 C.ar      1   LIG102    0.0000
      7 C6          1.2316   -4.9760   -2.2144 C.ar      1   LIG102    0.0000
      8 C7          1.7945   -4.0392   -3.0609 C.ar      1   LIG102    0.0000
      9 C8          1.7712   -2.6960   -2.7214 C.ar      1   LIG102    0.0000
     10 O2          2.3192   -1.7725   -3.5558 O.3       1   LIG102    0.0000
     11 C9          2.9799   -2.2643   -4.7236 C.3       1   LIG102    0.0000
     12 C10         3.6364   -1.0993   -5.4669 C.3       1   LIG102    0.0000
     13 N1          4.7254   -0.5482   -4.6494 N.3       1   LIG102    0.0000
     14 C11         5.2669    0.6523   -5.3002 C.3       1   LIG102    0.0000
     15 C12         5.9013    0.2653   -6.6376 C.3       1   LIG102    0.0000
     16 C13         6.3268    1.2874   -4.3978 C.3       1   LIG102    0.0000
     17 C14         5.6854    1.7401   -3.1114 C.ar      1   LIG102    0.0000
     18 C15         5.0487    2.9663   -3.0518 C.ar      1   LIG102    0.0000
     19 C16         4.4605    3.3837   -1.8738 C.ar      1   LIG102    0.0000
     20 C17         4.5084    2.5714   -0.7499 C.ar      1   LIG102    0.0000
     21 C18         5.1472    1.3418   -0.8125 C.ar      1   LIG102    0.0000
     22 C19         5.7296    0.9265   -1.9946 C.ar      1   LIG102    0.0000
     23 S1          5.2103    0.3074    0.6125 S.o2      1   LIG102    0.0000
     24 O3          3.8883    0.2482    1.1303 O.2       1   LIG102    0.0000
     25 O4          5.9345   -0.8564    0.2378 O.2       1   LIG102    0.0000
     26 N2          6.1280    1.0913    1.7464 N.3       1   LIG102    0.0000
     27 O5          3.9308    2.9801    0.4104 O.3       1   LIG102    0.0000
     28 C20         3.2911    4.2579    0.4017 C.3       1   LIG102    0.0000
     29 H1          0.1946    1.0767    1.2558 H         1   LIG102    0.0000
     30 H2          1.6176    1.2382    0.1565 H         1   LIG102    0.0000
     31 H3         -0.0548    1.2510   -0.5238 H         1   LIG102    0.0000
     32 H4         -0.3313   -1.1113    0.2285 H         1   LIG102    0.0000
     33 H5          1.3391   -1.0641    0.8415 H         1   LIG102    0.0000
     34 H6          0.1698   -2.9267    0.2602 H         1   LIG102    0.0000
     35 H7          0.2070   -5.3184   -0.3607 H         1   LIG102    0.0000
     36 H8          1.2464   -6.0318   -2.4849 H         1   LIG102    0.0000
     37 H9          2.2567   -4.3572   -3.9954 H         1   LIG102    0.0000
     38 H10         2.2116   -2.7088   -5.3562 H         1   LIG102    0.0000
     39 H11         3.7005   -3.0295   -4.4351 H         1   LIG102    0.0000
     40 H12         2.9127   -0.3136   -5.6837 H         1   LIG102    0.0000
     41 H13         4.0692   -1.4621   -6.3992 H         1   LIG102    0.0000
     42 H14         5.4713   -1.2518   -4.5517 H         1   LIG102    0.0000
     43 H15         4.4617    1.3663   -5.4732 H         1   LIG102    0.0000
     44 H16         6.2882    1.1815   -7.0838 H         1   LIG102    0.0000
     45 H17         6.6974   -0.4463   -6.4186 H         1   LIG102    0.0000
     46 H18         5.1148   -0.1811   -7.2461 H         1   LIG102    0.0000
     47 H19         6.7806    2.1429   -4.8981 H         1   LIG102    0.0000
     48 H20         7.0965    0.5508   -4.1676 H         1   LIG102    0.0000
     49 H21         5.0110    3.6039   -3.9351 H         1   LIG102    0.0000
     50 H22         3.9591    4.3504   -1.8271 H         1   LIG102    0.0000
     51 H23         6.2243   -0.0434   -2.0466 H         1   LIG102    0.0000
     52 H24         6.1628    0.4842    2.5777 H         1   LIG102    0.0000
     53 H25         7.0617    1.2304    1.3344 H         1   LIG102    0.0000
     54 H26         2.8890    4.4198    1.4018 H         1   LIG102    0.0000
     55 H27         4.0535    4.9942    0.1474 H         1   LIG102    0.0000
     56 H28         2.5029    4.2146   -0.3499 H         1   LIG102    0.0000
@<TRIPOS>BOND
     1    1    2 1
     2    1   29 1
     3    1   30 1
     4    1   31 1
     5    2    3 1
     6    2   32 1
     7    2   33 1
     8    3    4 1
     9    4    5 ar
    10    4    9 ar
    11    5    6 ar
    12    5   34 1
    13    6    7 ar
    14    6   35 1
    15    7    8 ar
    16    7   36 1
    17    8    9 ar
    18    8   37 1
    19    9   10 1
    20   10   11 1
    21   11   12 1
    22   11   38 1
    23   11   39 1
    24   12   13 1
    25   12   40 1
    26   12   41 1
    27   13   14 1
    28   13   42 1
    29   14   15 1
    30   14   16 1
    31   14   43 1
    32   15   44 1
    33   15   45 1
    34   15   46 1
    35   16   17 1
    36   16   47 1
    37   16   48 1
    38   17   18 ar
    39   17   22 ar
    40   18   19 ar
    41   18   49 1
    42   19   20 ar
    43   19   50 1
    44   20   21 ar
    45   20   27 1
    46   21   22 ar
    47   21   23 1
    48   22   51 1
    49   23   24 2
    50   23   25 2
    51   23   26 1
    52   26   52 1
    53   26   53 1
    54   27   28 1
    55   28   54 1
    56   28   55 1
    57   28   56 1
@<TRIPOS>SUBSTRUCTURE
     1   LIG102    1   GROUP 1   LIG 1
@<TRIPOS>MOLECULE
ZINC00057254
   40    41    1     0     0
SMALL
USER_CHARGES


@<TRIPOS>ATOM
      1 C1          1.6877    1.8892   -0.1300 C.3       1    LIG43    0.0000
      2 C2         -0.3126    1.8853   -1.4943 C.3       1    LIG43    0.0000
      3 C3          0.2578   -0.0642   -0.1764 C.3       1    LIG43    0.0000
      4 C4          0.6795   -0.5159    1.2233 C.3       1    LIG43    0.0000
      5 C5          0.6279   -2.0430    1.3034 C.3       1    LIG43    0.0000
      6 C6          1.0433   -2.4879    2.6820 C.ar      1    LIG43    0.0000
      7 C7          0.9918   -3.8271    3.0208 C.ar      1    LIG43    0.0000
      8 C8          1.3770   -4.2358    4.2839 C.ar      1    LIG43    0.0000
      9 C9          1.8051   -3.3042    5.2112 C.ar      1    LIG43    0.0000
     10 C10         1.8516   -1.9644    4.8741 C.ar      1    LIG43    0.0000
     11 C11         1.4705   -1.5563    3.6096 C.ar      1    LIG43    0.0000
     12 C12         1.5661   -2.6316    0.2816 C.ar      1    LIG43    0.0000
     13 C13         1.0679   -3.4070   -0.7487 C.ar      1    LIG43    0.0000
     14 C14         1.9278   -3.9431   -1.6887 C.ar      1    LIG43    0.0000
     15 C15         3.2878   -3.7129   -1.5933 C.ar      1    LIG43    0.0000
     16 C16         3.7876   -2.9422   -0.5608 C.ar      1    LIG43    0.0000
     17 C17         2.9267   -2.4009    0.3776 C.ar      1    LIG43    0.0000
     18 Cl1         3.5537   -1.4323    1.6746 Cl        1    LIG43    0.0000
     19 O1         -0.7039   -2.4890    1.0401 O.3       1    LIG43    0.0000
     20 N1          0.2923    1.4125   -0.2313 N.3       1    LIG43    1.0000
     21 H1          2.0846    1.5149    0.8136 H         1    LIG43    0.0000
     22 H2          2.2263    1.4825   -0.9859 H         1    LIG43    0.0000
     23 H3          1.6548    2.9785   -0.1522 H         1    LIG43    0.0000
     24 H4         -1.3350    1.5083   -1.5187 H         1    LIG43    0.0000
     25 H5         -0.2828    2.9747   -1.4737 H         1    LIG43    0.0000
     26 H6          0.2888    1.4788   -2.3074 H         1    LIG43    0.0000
     27 H7         -0.7437   -0.4188   -0.4202 H         1    LIG43    0.0000
     28 H8          0.9580   -0.4530   -0.9158 H         1    LIG43    0.0000
     29 H9          0.0008   -0.0901    1.9624 H         1    LIG43    0.0000
     30 H10         1.6953   -0.1756    1.4243 H         1    LIG43    0.0000
     31 H11         0.6475   -4.5608    2.2920 H         1    LIG43    0.0000
     32 H12         1.3432   -5.2926    4.5487 H         1    LIG43    0.0000
     33 H13         2.1060   -3.6261    6.2082 H         1    LIG43    0.0000
     34 H14         2.1888   -1.2298    5.6054 H         1    LIG43    0.0000
     35 H15         1.5068   -0.4998    3.3439 H         1    LIG43    0.0000
     36 H16        -0.0033   -3.5957   -0.8198 H         1    LIG43    0.0000
     37 H17         1.5336   -4.5476   -2.5056 H         1    LIG43    0.0000
     38 H18         3.9658   -4.1394   -2.3326 H         1    LIG43    0.0000
     39 H19         4.8598   -2.7607   -0.4856 H         1    LIG43    0.0000
     40 H20        -1.3104   -2.0662    1.7572 H         1    LIG43    0.0000
@<TRIPOS>BOND
     1    1   20 1
     2    1   21 1
     3    1   22 1
     4    1   23 1
     5    2   20 1
     6    2   24 1
     7    2   25 1
     8    2   26 1
     9    3    4 1
    10    3   20 1
    11    3   27 1
    12    3   28 1
    13    4    5 1
    14    4   29 1
    15    4   30 1
    16    5    6 1
    17    5   12 1
    18    5   19 1
    19    6    7 ar
    20    6   11 ar
    21    7    8 ar
    22    7   31 1
    23    8    9 ar
    24    8   32 1
    25    9   10 ar
    26    9   33 1
    27   10   11 ar
    28   10   34 1
    29   11   35 1
    30   12   13 ar
    31   12   17 ar
    32   13   14 ar
    33   13   36 1
    34   14   15 ar
    35   14   37 1
    36   15   16 ar
    37   15   38 1
    38   16   17 ar
    39   16   39 1
    40   17   18 1
    41   19   40 1
@<TRIPOS>SUBSTRUCTURE
     1    LIG43    1   GROUP 1   LIG 1
@<TRIPOS>MOLECULE
ZINC00000137
   43    44    1     0     0
SMALL
USER_CHARGES


@<TRIPOS>ATOM
      1 C1          3.1278    1.0265   -1.5617 C.3       1    LIG44    0.0000
      2 C2          2.2026    1.2151   -0.3578 C.3       1    LIG44    0.0000
      3 C3          2.6656    2.3993    0.4510 C.ar      1    LIG44    0.0000
      4 C4          2.5429    2.3866    1.8278 C.ar      1    LIG44    0.0000
      5 C5          2.9716    3.4711    2.5701 C.ar      1    LIG44    0.0000
      6 C6          3.5148    4.5721    1.9347 C.ar      1    LIG44    0.0000
      7 C7          3.6327    4.5871    0.5575 C.ar      1    LIG44    0.0000
      8 C8          3.2079    3.5008   -0.1844 C.ar      1    LIG44    0.0000
      9 C9          0.7947    1.4548   -0.8388 C.ar      1    LIG44    0.0000
     10 C10        -0.2405    0.6713   -0.3640 C.ar      1    LIG44    0.0000
     11 C11        -1.5311    0.8870   -0.8091 C.ar      1    LIG44    0.0000
     12 C12        -1.7885    1.8945   -1.7218 C.ar      1    LIG44    0.0000
     13 C13        -0.7521    2.6786   -2.1963 C.ar      1    LIG44    0.0000
     14 C14         0.5389    2.4585   -1.7544 C.ar      1    LIG44    0.0000
     15 Cl1        -3.4101    2.1699   -2.2768 Cl        1    LIG44    0.0000
     16 O1          2.2344    0.0408    0.4559 O.3       1    LIG44    0.0000
     17 C15         3.5480   -0.3511    0.8597 C.3       1    LIG44    0.0000
     18 C16         3.4527   -1.5295    1.8309 C.3       1    LIG44    0.0000
     19 C17         3.8131   -3.3205    0.2418 C.3       1    LIG44    0.0000
     20 C18         2.3135   -3.6471    2.1146 C.3       1    LIG44    0.0000
     21 N1          2.8269   -2.6708    1.1307 N.3       1    LIG44    1.0000
     22 H1          2.7579    0.1638   -2.1158 H         1    LIG44    0.0000
     23 H2          3.0731    1.9412   -2.1520 H         1    LIG44    0.0000
     24 H3          4.1305    0.8567   -1.1695 H         1    LIG44    0.0000
     25 H4          2.1081    1.5214    2.3282 H         1    LIG44    0.0000
     26 H5          2.8813    3.4581    3.6563 H         1    LIG44    0.0000
     27 H6          3.8502    5.4285    2.5197 H         1    LIG44    0.0000
     28 H7          4.0606    5.4555    0.0565 H         1    LIG44    0.0000
     29 H8          3.3005    3.5127   -1.2704 H         1    LIG44    0.0000
     30 H9         -0.0389   -0.1168    0.3615 H         1    LIG44    0.0000
     31 H10        -2.3460    0.2635   -0.4412 H         1    LIG44    0.0000
     32 H11        -0.9536    3.4698   -2.9185 H         1    LIG44    0.0000
     33 H12         1.3555    3.0764   -2.1279 H         1    LIG44    0.0000
     34 H13         3.9880    0.5043    1.3724 H         1    LIG44    0.0000
     35 H14         4.1408   -0.5897   -0.0233 H         1    LIG44    0.0000
     36 H15         2.8659   -1.2694    2.7119 H         1    LIG44    0.0000
     37 H16         4.4514   -1.8261    2.1515 H         1    LIG44    0.0000
     38 H17         3.3031   -4.1504   -0.2473 H         1    LIG44    0.0000
     39 H18         4.1410   -2.5674   -0.4748 H         1    LIG44    0.0000
     40 H19         4.6331   -3.6639    0.8726 H         1    LIG44    0.0000
     41 H20         1.8648   -4.4637    1.5489 H         1    LIG44    0.0000
     42 H21         3.1661   -3.9833    2.7046 H         1    LIG44    0.0000
     43 H22         1.5775   -3.1258    2.7266 H         1    LIG44    0.0000
@<TRIPOS>BOND
     1    1    2 1
     2    1   22 1
     3    1   23 1
     4    1   24 1
     5    2    3 1
     6    2    9 1
     7    2   16 1
     8    3    4 ar
     9    3    8 ar
    10    4    5 ar
    11    4   25 1
    12    5    6 ar
    13    5   26 1
    14    6    7 ar
    15    6   27 1
    16    7    8 ar
    17    7   28 1
    18    8   29 1
    19    9   10 ar
    20    9   14 ar
    21   10   11 ar
    22   10   30 1
    23   11   12 ar
    24   11   31 1
    25   12   13 ar
    26   12   15 1
    27   13   14 ar
    28   13   32 1
    29   14   33 1
    30   16   17 1
    31   17   18 1
    32   17   34 1
    33   17   35 1
    34   18   21 1
    35   18   36 1
    36   18   37 1
    37   19   21 1
    38   19   38 1
    39   19   39 1
    40   19   40 1
    41   20   21 1
    42   20   41 1
    43   20   42 1
    44   20   43 1
@<TRIPOS>SUBSTRUCTURE
     1    LIG44    1   GROUP 1   LIG 1
@<TRIPOS>MOLECULE
ZINC03995861
   40    45    1     0     0
SMALL
USER_CHARGES


@<TRIPOS>ATOM
      1 C1         -0.0248    1.6132    1.3366 C.3       1    LIG87    0.0000
      2 C2          0.2309    0.1050    1.3666 C.3       1    LIG87    0.0000
      3 C3         -0.1809   -0.5061    0.0397 C.3       1    LIG87    0.0000
      4 C4          0.6875   -1.6677   -0.4319 C.3       1    LIG87    0.0000
      5 C5          2.1754   -1.2663   -0.2820 C.3       1    LIG87    0.0000
      6 C6          2.2779   -1.4110    1.2643 C.3       1    LIG87    0.0000
      7 C7          1.6395   -0.1618    1.8653 C.3       1    LIG87    0.0000
      8 C8          1.4896   -0.3644    3.3926 C.3       1    LIG87    0.0000
      9 C9          0.1104   -1.0610    3.5342 C.3       1    LIG87    0.0000
     10 C10        -0.7410   -0.5605    2.3607 C.3       1    LIG87    0.0000
     11 O1         -0.9998   -0.1657    3.7194 O.3       1    LIG87    0.0000
     12 C11        -1.6764   -1.3691    1.5002 C.2       1    LIG87    0.0000
     13 O2         -2.4591   -2.1987    1.8988 O.3       1    LIG87    0.0000
     14 O3         -1.5130   -1.0176    0.2420 O.3       1    LIG87    0.0000
     15 O4          2.4664    0.9749    1.6080 O.3       1    LIG87    0.0000
     16 C12         1.3582   -2.5864    1.5485 C.2       1    LIG87    0.0000
     17 O5          1.3765   -3.2669    2.5467 O.3       1    LIG87    0.0000
     18 O6          0.5110   -2.7510    0.5030 O.3       1    LIG87    0.0000
     19 C13         2.4214    0.1743   -0.7347 C.3       1    LIG87    0.0000
     20 C14         3.9056    0.5116   -0.5784 C.3       1    LIG87    0.0000
     21 C15         2.0163    0.3239   -2.2025 C.3       1    LIG87    0.0000
     22 O7          1.6435    1.0651    0.0673 O.3       1    LIG87    0.0000
     23 H1          0.2838    2.0081    2.3045 H         1    LIG87    0.0000
     24 H2          0.5740    2.0218    0.5226 H         1    LIG87    0.0000
     25 H3         -1.0920    1.7521    1.1639 H         1    LIG87    0.0000
     26 H4         -0.0905    0.2666   -0.7237 H         1    LIG87    0.0000
     27 H5          0.4259   -1.9298   -1.4571 H         1    LIG87    0.0000
     28 H6          2.8920   -1.8415   -0.8683 H         1    LIG87    0.0000
     29 H7          3.2902   -1.5390    1.6477 H         1    LIG87    0.0000
     30 H8          1.5408    0.5749    3.9432 H         1    LIG87    0.0000
     31 H9          2.3021   -0.9544    3.8167 H         1    LIG87    0.0000
     32 H10         0.4024   -1.9925    4.0191 H         1    LIG87    0.0000
     33 H11        -2.9574   -2.5632    1.0744 H         1    LIG87    0.0000
     34 H12         0.6372   -3.9763    2.4412 H         1    LIG87    0.0000
     35 H13         4.0350    1.5416   -0.9106 H         1    LIG87    0.0000
     36 H14         4.1500    0.3925    0.4771 H         1    LIG87    0.0000
     37 H15         4.4591   -0.1886   -1.2041 H         1    LIG87    0.0000
     38 H16         2.2073    1.3601   -2.4818 H         1    LIG87    0.0000
     39 H17         2.6315   -0.3701   -2.7752 H         1    LIG87    0.0000
     40 H18         0.9570    0.0753   -2.2677 H         1    LIG87    0.0000
@<TRIPOS>BOND
     1    1    2 1
     2    1   23 1
     3    1   24 1
     4    1   25 1
     5    2    3 1
     6    2    7 1
     7    2   10 1
     8    3    4 1
     9    3   14 1
    10    3   26 1
    11    4    5 1
    12    4   18 1
    13    4   27 1
    14    5    6 1
    15    5   19 1
    16    5   28 1
    17    6    7 1
    18    6   16 1
    19    6   29 1
    20    7    8 1
    21    7   15 1
    22    8    9 1
    23    8   30 1
    24    8   31 1
    25    9   10 1
    26    9   11 1
    27    9   32 1
    28   10   11 1
    29   10   12 1
    30   12   13 1
    31   12   14 1
    32   13   33 1
    33   15   22 1
    34   16   17 1
    35   16   18 1
    36   17   34 1
    37   19   20 1
    38   19   21 1
    39   19   22 1
    40   20   35 1
    41   20   36 1
    42   20   37 1
    43   21   38 1
    44   21   39 1
    45   21   40 1
@<TRIPOS>SUBSTRUCTURE
     1    LIG87    1   GROUP 1   LIG 1
@<TRIPOS>MOLECULE
ZINC01530907
   38    39    1     0     0
SMALL
USER_CHARGES


@<TRIPOS>ATOM
      1 C1          0.1229    1.3787   -0.0400 C.3       1    LIG91    0.0000
      2 N1          0.0493   -0.0844   -0.0508 N.pl3     1    LIG91    0.0000
      3 C2         -1.2389   -0.8049    0.0034 C.3       1    LIG91    0.0000
      4 N2         -1.3495   -1.6555   -1.1792 N.3       1    LIG91    0.0000
      5 C3         -0.3467   -2.5301   -1.5891 C.ar      1    LIG91    0.0000
      6 C4         -0.6860   -3.6024   -2.4127 C.ar      1    LIG91    0.0000
      7 C5          0.2877   -4.4774   -2.8500 C.ar      1    LIG91    0.0000
      8 C6          1.6077   -4.2962   -2.4745 C.ar      1    LIG91    0.0000
      9 C7          1.9501   -3.2383   -1.6522 C.ar      1    LIG91    0.0000
     10 C8          0.9781   -2.3666   -1.2074 C.ar      1    LIG91    0.0000
     11 S1          1.4149   -1.0392   -0.1321 S.o2      1    LIG91    0.0000
     12 O1          1.6060   -1.6012    1.1590 O.2       1    LIG91    0.0000
     13 O2          2.4144   -0.2785   -0.7965 O.2       1    LIG91    0.0000
     14 S2          2.8486   -5.4103   -3.0433 S.o2      1    LIG91    0.0000
     15 O3          2.6660   -5.5396   -4.4466 O.2       1    LIG91    0.0000
     16 O4          4.0755   -4.9781   -2.4713 O.2       1    LIG91    0.0000
     17 N3          2.5152   -6.8925   -2.3842 N.3       1    LIG91    0.0000
     18 Cl1        -0.1448   -5.8106   -3.8743 Cl        1    LIG91    0.0000
     19 C9         -1.2923   -1.6667    1.2664 C.3       1    LIG91    0.0000
     20 S3         -2.9356   -2.4203    1.4153 S.3       1    LIG91    0.0000
     21 C10        -2.8346   -3.3956    2.9414 C.3       1    LIG91    0.0000
     22 C11        -4.1730   -4.0940    3.1899 C.3       1    LIG91    0.0000
     23 F1         -4.4644   -4.9398    2.1143 F         1    LIG91    0.0000
     24 F2         -4.0951   -4.8462    4.3669 F         1    LIG91    0.0000
     25 F3         -5.1834   -3.1346    3.3157 F         1    LIG91    0.0000
     26 H1          1.1788    1.6450   -0.0876 H         1    LIG91    0.0000
     27 H2         -0.4239    1.7318   -0.9143 H         1    LIG91    0.0000
     28 H3         -0.3382    1.7141    0.8890 H         1    LIG91    0.0000
     29 H4         -2.0637   -0.0926    0.0258 H         1    LIG91    0.0000
     30 H5         -1.4272   -1.0057   -1.9746 H         1    LIG91    0.0000
     31 H6         -1.7235   -3.7503   -2.7123 H         1    LIG91    0.0000
     32 H7          2.9888   -3.0933   -1.3554 H         1    LIG91    0.0000
     33 H8          3.2421   -7.5411   -2.7185 H         1    LIG91    0.0000
     34 H9          2.5435   -6.7802   -1.3607 H         1    LIG91    0.0000
     35 H10        -1.1700   -0.9380    2.0677 H         1    LIG91    0.0000
     36 H11        -0.4401   -2.3463    1.2600 H         1    LIG91    0.0000
     37 H12        -2.5480   -2.8607    3.8469 H         1    LIG91    0.0000
     38 H13        -2.1489   -4.2270    2.7781 H         1    LIG91    0.0000
@<TRIPOS>BOND
     1    1    2 1
     2    1   26 1
     3    1   27 1
     4    1   28 1
     5    2    3 1
     6    2   11 1
     7    3    4 1
     8    3   19 1
     9    3   29 1
    10    4    5 1
    11    4   30 1
    12    5    6 ar
    13    5   10 ar
    14    6    7 ar
    15    6   31 1
    16    7    8 ar
    17    7   18 1
    18    8    9 ar
    19    8   14 1
    20    9   10 ar
    21    9   32 1
    22   10   11 1
    23   11   12 2
    24   11   13 2
    25   14   15 2
    26   14   16 2
    27   14   17 1
    28   17   33 1
    29   17   34 1
    30   19   20 1
    31   19   35 1
    32   19   36 1
    33   20   21 1
    34   21   22 1
    35   21   37 1
    36   21   38 1
    37   22   23 1
    38   22   24 1
    39   22   25 1
@<TRIPOS>SUBSTRUCTURE
     1    LIG91    1   GROUP 1   LIG 1
@<TRIPOS>MOLECULE
ZINC01530621
   35    36    1     0     0
SMALL
USER_CHARGES


@<TRIPOS>ATOM
      1 C1         -0.1492    1.5288   -2.3323 C.3       1   LIG106    0.0000
      2 C2         -0.1164   -0.0009   -2.3383 C.3       1   LIG106    0.0000
      3 N1          0.6897   -0.4778   -1.2066 N.3       1   LIG106    0.0000
      4 C3          0.6171   -1.9434   -1.1370 C.3       1   LIG106    0.0000
      5 C4          1.2315   -2.5278   -2.3982 C.3       1   LIG106    0.0000
      6 C5          1.0962   -4.0576   -2.4201 C.3       1   LIG106    0.0000
      7 S1          2.2539   -4.7069   -1.1650 S.o2      1   LIG106    0.0000
      8 O1          3.5991   -4.5241   -1.5850 O.2       1   LIG106    0.0000
      9 O2          1.8041   -5.9618   -0.6729 O.2       1   LIG106    0.0000
     10 C6          2.0269   -3.5802    0.1606 C.ar      1   LIG106    0.0000
     11 C7          1.3317   -2.4135    0.1206 C.ar      1   LIG106    0.0000
     12 C8          1.3152   -1.6792    1.3120 C.ar      1   LIG106    0.0000
     13 C9          1.9529   -2.1428    2.4103 C.ar      1   LIG106    0.0000
     14 S2          2.6320   -3.6831    1.8188 S.2       1   LIG106    0.0000
     15 S3          2.0784   -1.4167    4.0108 S.o2      1   LIG106    0.0000
     16 O3          3.2503   -1.9529    4.6093 O.2       1   LIG106    0.0000
     17 O4          1.8813   -0.0198    3.8397 O.2       1   LIG106    0.0000
     18 N2          0.7966   -1.9699    4.9014 N.3       1   LIG106    0.0000
     19 C10        -0.3376   -4.4611   -2.0706 C.3       1   LIG106    0.0000
     20 H1         -0.7548    1.8379   -3.1842 H         1   LIG106    0.0000
     21 H2         -0.5953    1.8343   -1.3858 H         1   LIG106    0.0000
     22 H3          0.8820    1.8700   -2.4231 H         1   LIG106    0.0000
     23 H4          0.3045   -0.3815   -3.2689 H         1   LIG106    0.0000
     24 H5         -1.1285   -0.3856   -2.2131 H         1   LIG106    0.0000
     25 H6          0.3259   -0.0741   -0.3316 H         1   LIG106    0.0000
     26 H7         -0.4169   -2.2838   -1.0806 H         1   LIG106    0.0000
     27 H8          2.2906   -2.2707   -2.4128 H         1   LIG106    0.0000
     28 H9          0.7155   -2.1113   -3.2633 H         1   LIG106    0.0000
     29 H10         1.3249   -4.4579   -3.4078 H         1   LIG106    0.0000
     30 H11         0.7850   -0.7278    1.3546 H         1   LIG106    0.0000
     31 H12         0.8730   -1.5437    5.8360 H         1   LIG106    0.0000
     32 H13        -0.0601   -1.6718    4.4135 H         1   LIG106    0.0000
     33 H14        -0.3785   -5.5499   -2.1003 H         1   LIG106    0.0000
     34 H15        -0.5430   -4.0749   -1.0722 H         1   LIG106    0.0000
     35 H16        -0.9873   -4.0106   -2.8209 H         1   LIG106    0.0000
@<TRIPOS>BOND
     1    1    2 1
     2    1   20 1
     3    1   21 1
     4    1   22 1
     5    2    3 1
     6    2   23 1
     7    2   24 1
     8    3    4 1
     9    3   25 1
    10    4    5 1
    11    4   11 1
    12    4   26 1
    13    5    6 1
    14    5   27 1
    15    5   28 1
    16    6    7 1
    17    6   19 1
    18    6   29 1
    19    7    8 2
    20    7    9 2
    21    7   10 1
    22   10   11 ar
    23   10   14 ar
    24   11   12 ar
    25   12   13 ar
    26   12   30 1
    27   13   14 ar
    28   13   15 1
    29   15   16 2
    30   15   17 2
    31   15   18 1
    32   18   31 1
    33   18   32 1
    34   19   33 1
    35   19   34 1
    36   19   35 1
@<TRIPOS>SUBSTRUCTURE
     1   LIG106    1   GROUP 1   LIG 1
@<TRIPOS>MOLECULE
ZINC00000095
   40    41    1     0     0
SMALL
USER_CHARGES


@<TRIPOS>ATOM
      1 C1          0.7152    3.4993   -1.5012 C.3       1    LIG33    0.0000
      2 C2         -1.5606    3.5978   -2.3221 C.3       1    LIG33    0.0000
      3 C3         -0.7527    1.5927   -1.2315 C.3       1    LIG33    0.0000
      4 C4         -0.0127    1.0858    0.0080 C.3       1    LIG33    0.0000
      5 O1         -0.6816    1.5467    1.1837 O.3       1    LIG33    0.0000
      6 C5         -0.0679    1.1266    2.4039 C.3       1    LIG33    0.0000
      7 C6         -0.6566   -0.1922    2.8343 C.ar      1    LIG33    0.0000
      8 C7         -1.9932   -0.4602    2.6049 C.ar      1    LIG33    0.0000
      9 C8         -2.5322   -1.6717    2.9957 C.ar      1    LIG33    0.0000
     10 C9         -1.7368   -2.6115    3.6241 C.ar      1    LIG33    0.0000
     11 C10        -0.4014   -2.3415    3.8582 C.ar      1    LIG33    0.0000
     12 C11         0.1386   -1.1317    3.4635 C.ar      1    LIG33    0.0000
     13 C12        -0.3156    2.1599    3.4726 C.ar      1    LIG33    0.0000
     14 C13        -1.5466    2.7830    3.5591 C.ar      1    LIG33    0.0000
     15 C14        -1.7758    3.7273    4.5421 C.ar      1    LIG33    0.0000
     16 C15        -0.7699    4.0564    5.4327 C.ar      1    LIG33    0.0000
     17 C16         0.4633    3.4365    5.3424 C.ar      1    LIG33    0.0000
     18 C17         0.6900    2.4885    4.3624 C.ar      1    LIG33    0.0000
     19 Br1        -1.0804    5.3540    6.7728 Br        1    LIG33    0.0000
     20 N1         -0.6782    3.0686   -1.2610 N.3       1    LIG33    1.0000
     21 H1          1.3204    3.0846   -0.6951 H         1    LIG33    0.0000
     22 H2          1.0083    3.1027   -2.4733 H         1    LIG33    0.0000
     23 H3          0.7182    4.5892   -1.4906 H         1    LIG33    0.0000
     24 H4         -2.5701    3.2530   -2.0985 H         1    LIG33    0.0000
     25 H5         -1.4863    4.6847   -2.2858 H         1    LIG33    0.0000
     26 H6         -1.1962    3.1981   -3.2684 H         1    LIG33    0.0000
     27 H7         -1.7958    1.2764   -1.2248 H         1    LIG33    0.0000
     28 H8         -0.2736    1.2055   -2.1308 H         1    LIG33    0.0000
     29 H9          1.0266    1.4135    0.0322 H         1    LIG33    0.0000
     30 H10        -0.0508   -0.0033    0.0307 H         1    LIG33    0.0000
     31 H11         1.0052    1.0127    2.2504 H         1    LIG33    0.0000
     32 H12        -2.6221    0.2837    2.1159 H         1    LIG33    0.0000
     33 H13        -3.5844   -1.8859    2.8083 H         1    LIG33    0.0000
     34 H14        -2.1626   -3.5655    3.9350 H         1    LIG33    0.0000
     35 H15         0.2257   -3.0825    4.3540 H         1    LIG33    0.0000
     36 H16         1.1914   -0.9186    3.6484 H         1    LIG33    0.0000
     37 H17        -2.3365    2.5296    2.8521 H         1    LIG33    0.0000
     38 H18        -2.7491    4.2126    4.6155 H         1    LIG33    0.0000
     39 H19         1.2562    3.6956    6.0440 H         1    LIG33    0.0000
     40 H20         1.6618    2.0000    4.2912 H         1    LIG33    0.0000
@<TRIPOS>BOND
     1    1   20 1
     2    1   21 1
     3    1   22 1
     4    1   23 1
     5    2   20 1
     6    2   24 1
     7    2   25 1
     8    2   26 1
     9    3    4 1
    10    3   20 1
    11    3   27 1
    12    3   28 1
    13    4    5 1
    14    4   29 1
    15    4   30 1
    16    5    6 1
    17    6    7 1
    18    6   13 1
    19    6   31 1
    20    7    8 ar
    21    7   12 ar
    22    8    9 ar
    23    8   32 1
    24    9   10 ar
    25    9   33 1
    26   10   11 ar
    27   10   34 1
    28   11   12 ar
    29   11   35 1
    30   12   36 1
    31   13   14 ar
    32   13   18 ar
    33   14   15 ar
    34   14   37 1
    35   15   16 ar
    36   15   38 1
    37   16   17 ar
    38   16   19 1
    39   17   18 ar
    40   17   39 1
    41   18   40 1
@<TRIPOS>SUBSTRUCTURE
     1    LIG33    1   GROUP 1   LIG 1
@<TRIPOS>MOLECULE
ZINC00896455
   38    39    1     0     0
SMALL
USER_CHARGES


@<TRIPOS>ATOM
      1 C1          0.1393    1.3034   -0.7375 C.3       1    LIG35    0.0000
      2 N1          0.0864   -0.1636   -0.6820 N.3       1    LIG35    1.0000
      3 C2          1.0003   -0.6474    0.3614 C.3       1    LIG35    0.0000
      4 C3         -1.2835   -0.5928   -0.3705 C.3       1    LIG35    0.0000
      5 C4         -1.3670   -2.1192   -0.4352 C.3       1    LIG35    0.0000
      6 C5         -2.7938   -2.5661   -0.1108 C.3       1    LIG35    0.0000
      7 C6         -2.8481   -4.0711   -0.0538 C.ar      1    LIG35    0.0000
      8 C7         -2.3965   -4.8198   -1.1246 C.ar      1    LIG35    0.0000
      9 C8         -2.4456   -6.2001   -1.0726 C.ar      1    LIG35    0.0000
     10 C9         -2.9468   -6.8323    0.0510 C.ar      1    LIG35    0.0000
     11 C10        -3.3985   -6.0827    1.1222 C.ar      1    LIG35    0.0000
     12 C11        -3.3441   -4.7025    1.0715 C.ar      1    LIG35    0.0000
     13 Br1        -3.0148   -8.7207    0.1225 Br        1    LIG35    0.0000
     14 C12        -3.7314   -2.0698   -1.1812 C.ar      1    LIG35    0.0000
     15 C13        -3.3064   -2.0281   -2.4958 C.ar      1    LIG35    0.0000
     16 C14        -4.1766   -1.5699   -3.4728 C.ar      1    LIG35    0.0000
     17 C15        -5.4475   -1.1689   -3.0893 C.ar      1    LIG35    0.0000
     18 C16        -5.8018   -1.2390   -1.7555 C.ar      1    LIG35    0.0000
     19 N2         -4.9493   -1.6855   -0.8536 N.ar      1    LIG35    0.0000
     20 H1         -0.5503    1.6177   -1.5209 H         1    LIG35    0.0000
     21 H2         -0.1659    1.6706    0.2424 H         1    LIG35    0.0000
     22 H3          1.1686    1.5766   -0.9701 H         1    LIG35    0.0000
     23 H4          0.9295   -1.7351    0.3678 H         1    LIG35    0.0000
     24 H5          2.0003   -0.3080    0.0915 H         1    LIG35    0.0000
     25 H6          0.6659   -0.2140    1.3040 H         1    LIG35    0.0000
     26 H7         -1.9472   -0.1615   -1.1199 H         1    LIG35    0.0000
     27 H8         -1.5627   -0.2253    0.6170 H         1    LIG35    0.0000
     28 H9         -0.6771   -2.5519    0.2893 H         1    LIG35    0.0000
     29 H10        -1.0999   -2.4556   -1.4370 H         1    LIG35    0.0000
     30 H11        -3.0929   -2.1549    0.8533 H         1    LIG35    0.0000
     31 H12        -2.0017   -4.3215   -2.0100 H         1    LIG35    0.0000
     32 H13        -2.0894   -6.7904   -1.9169 H         1    LIG35    0.0000
     33 H14        -3.7973   -6.5804    2.0062 H         1    LIG35    0.0000
     34 H15        -3.6923   -4.1119    1.9189 H         1    LIG35    0.0000
     35 H16        -2.2998   -2.3514   -2.7609 H         1    LIG35    0.0000
     36 H17        -3.8692   -1.5259   -4.5176 H         1    LIG35    0.0000
     37 H18        -6.1580   -0.8031   -3.8306 H         1    LIG35    0.0000
     38 H19        -6.7973   -0.9216   -1.4452 H         1    LIG35    0.0000
@<TRIPOS>BOND
     1    1    2 1
     2    1   20 1
     3    1   21 1
     4    1   22 1
     5    2    3 1
     6    2    4 1
     7    3   23 1
     8    3   24 1
     9    3   25 1
    10    4    5 1
    11    4   26 1
    12    4   27 1
    13    5    6 1
    14    5   28 1
    15    5   29 1
    16    6    7 1
    17    6   14 1
    18    6   30 1
    19    7    8 ar
    20    7   12 ar
    21    8    9 ar
    22    8   31 1
    23    9   10 ar
    24    9   32 1
    25   10   11 ar
    26   10   13 1
    27   11   12 ar
    28   11   33 1
    29   12   34 1
    30   14   15 ar
    31   14   19 ar
    32   15   16 ar
    33   15   35 1
    34   16   17 ar
    35   16   36 1
    36   17   18 ar
    37   17   37 1
    38   18   19 ar
    39   18   38 1
@<TRIPOS>SUBSTRUCTURE
     1    LIG35    1   GROUP 1   LIG 1
@<TRIPOS>MOLECULE
ZINC00113386
   32    32    1     0     0
SMALL
USER_CHARGES


@<TRIPOS>ATOM
      1 C1         -1.2248    2.1776    0.0197 C.ar      1    LIG30    0.0000
      2 C2         -1.2435    3.5598    0.0322 C.ar      1    LIG30    0.0000
      3 C3         -0.0559    4.2672    0.0251 C.ar      1    LIG30    0.0000
      4 C4          1.1505    3.5924    0.0100 C.ar      1    LIG30    0.0000
      5 C5          1.1693    2.2102    0.0028 C.ar      1    LIG30    0.0000
      6 C6         -0.0184    1.5028    0.0103 C.ar      1    LIG30    0.0000
      7 C7          0.0021   -0.0041    0.0020 C.3       1    LIG30    0.0000
      8 C8         -0.2279   -0.5251    1.4221 C.3       1    LIG30    0.0000
      9 C9         -0.2072   -2.0549    1.4137 C.3       1    LIG30    0.0000
     10 O1         -1.1623   -2.5390    0.4675 O.3       1    LIG30    0.0000
     11 N1         -1.5277   -0.0570    1.9094 N.am      1    LIG30    0.0000
     12 C10        -1.7481    0.0615    3.2338 C.2       1    LIG30    0.0000
     13 O2         -0.8702   -0.2194    4.0221 O.2       1    LIG30    0.0000
     14 C11        -3.0852    0.5430    3.7351 C.3       1    LIG30    0.0000
     15 Cl1        -3.0219    0.7343    5.5268 Cl        1    LIG30    0.0000
     16 Cl2        -3.4761    2.1303    2.9746 Cl        1    LIG30    0.0000
     17 O3         -1.0317   -0.4897   -0.8568 O.3       1    LIG30    0.0000
     18 N2         -0.0759    5.7472    0.0333 N.pl3     1    LIG30    0.0000
     19 O4          0.9705    6.3705    0.0267 O.2       1    LIG30    0.0000
     20 O5         -1.1389    6.3418    0.0467 O.2       1    LIG30    0.0000
     21 H1         -2.1613    1.6199    0.0173 H         1    LIG30    0.0000
     22 H2         -2.1947    4.0919    0.0477 H         1    LIG30    0.0000
     23 H3          2.0869    4.1502    0.0038 H         1    LIG30    0.0000
     24 H4          2.1205    1.6781   -0.0088 H         1    LIG30    0.0000
     25 H5          0.9692   -0.3524   -0.3606 H         1    LIG30    0.0000
     26 H6          0.5606   -0.1547    2.0772 H         1    LIG30    0.0000
     27 H7         -0.4253   -2.4770    2.3947 H         1    LIG30    0.0000
     28 H8          0.7707   -2.4007    1.0787 H         1    LIG30    0.0000
     29 H9         -1.1167   -3.5677    0.4930 H         1    LIG30    0.0000
     30 H10        -2.2732    0.1816    1.2399 H         1    LIG30    0.0000
     31 H11        -3.8543   -0.1840    3.4743 H         1    LIG30    0.0000
     32 H12        -0.8406   -0.1179   -1.7982 H         1    LIG30    0.0000
@<TRIPOS>BOND
     1    1    2 ar
     2    1    6 ar
     3    1   21 1
     4    2    3 ar
     5    2   22 1
     6    3    4 ar
     7    3   18 1
     8    4    5 ar
     9    4   23 1
    10    5    6 ar
    11    5   24 1
    12    6    7 1
    13    7    8 1
    14    7   17 1
    15    7   25 1
    16    8    9 1
    17    8   11 1
    18    8   26 1
    19    9   10 1
    20    9   27 1
    21    9   28 1
    22   10   29 1
    23   11   12 am
    24   11   30 1
    25   12   13 2
    26   12   14 1
    27   14   15 1
    28   14   16 1
    29   14   31 1
    30   17   32 1
    31   18   19 2
    32   18   20 2
@<TRIPOS>SUBSTRUCTURE
     1    LIG30    1   GROUP 1   LIG 1
@<TRIPOS>MOLECULE
ZINC01530622
   35    36    1     0     0
SMALL
USER_CHARGES


@<TRIPOS>ATOM
      1 C1          1.9706    1.5227   -0.6113 C.3       1   LIG104    0.0000
      2 C2          2.0331    0.0175   -0.8783 C.3       1   LIG104    0.0000
      3 N1          0.6897   -0.4778   -1.2066 N.3       1   LIG104    0.0000
      4 C3          0.7249   -1.9408   -1.3344 C.3       1   LIG104    0.0000
      5 C4          1.6414   -2.3130   -2.4881 C.3       1   LIG104    0.0000
      6 C5          1.7889   -3.8373   -2.6062 C.3       1   LIG104    0.0000
      7 S1          0.1974   -4.4730   -3.2388 S.o2      1   LIG104    0.0000
      8 O1          0.0102   -4.0894   -4.5942 O.2       1   LIG104    0.0000
      9 O2         -0.0037   -5.8169   -2.8233 O.2       1   LIG104    0.0000
     10 C6         -0.9641   -3.5264   -2.3262 C.ar      1   LIG104    0.0000
     11 C7         -0.6926   -2.4524   -1.5395 C.ar      1   LIG104    0.0000
     12 C8         -1.8018   -1.8542   -0.9304 C.ar      1   LIG104    0.0000
     13 C9         -3.0430   -2.3516   -1.1299 C.ar      1   LIG104    0.0000
     14 S2         -2.7169   -3.7304   -2.2144 S.2       1   LIG104    0.0000
     15 S3         -4.5821   -1.7885   -0.4829 S.o2      1   LIG104    0.0000
     16 O3         -5.4640   -2.9024   -0.5054 O.2       1   LIG104    0.0000
     17 O4         -4.2849   -1.0760    0.7101 O.2       1   LIG104    0.0000
     18 N2         -5.1890   -0.6826   -1.5558 N.3       1   LIG104    0.0000
     19 C10         2.9164   -4.1797   -3.5821 C.3       1   LIG104    0.0000
     20 H1          2.9838    1.8464   -0.3729 H         1   LIG104    0.0000
     21 H2          1.5987    1.9927   -1.5217 H         1   LIG104    0.0000
     22 H3          1.2903    1.6696    0.2276 H         1   LIG104    0.0000
     23 H4          2.4156   -0.5202   -0.0107 H         1   LIG104    0.0000
     24 H5          2.6779   -0.1719   -1.7365 H         1   LIG104    0.0000
     25 H6          0.3788   -0.0628   -2.0965 H         1   LIG104    0.0000
     26 H7          1.1200   -2.4050   -0.4308 H         1   LIG104    0.0000
     27 H8          2.6237   -1.8810   -2.2967 H         1   LIG104    0.0000
     28 H9          1.2152   -1.9228   -3.4124 H         1   LIG104    0.0000
     29 H10         2.0335   -4.2841   -1.6425 H         1   LIG104    0.0000
     30 H11        -1.6640   -0.9820   -0.2913 H         1   LIG104    0.0000
     31 H12        -6.0883   -0.3555   -1.1748 H         1   LIG104    0.0000
     32 H13        -4.5010    0.0810   -1.6227 H         1   LIG104    0.0000
     33 H14         2.9783   -5.2669   -3.6288 H         1   LIG104    0.0000
     34 H15         2.6462   -3.7475   -4.5456 H         1   LIG104    0.0000
     35 H16         3.8293   -3.7386   -3.1818 H         1   LIG104    0.0000
@<TRIPOS>BOND
     1    1    2 1
     2    1   20 1
     3    1   21 1
     4    1   22 1
     5    2    3 1
     6    2   23 1
     7    2   24 1
     8    3    4 1
     9    3   25 1
    10    4    5 1
    11    4   11 1
    12    4   26 1
    13    5    6 1
    14    5   27 1
    15    5   28 1
    16    6    7 1
    17    6   19 1
    18    6   29 1
    19    7    8 2
    20    7    9 2
    21    7   10 1
    22   10   11 ar
    23   10   14 ar
    24   11   12 ar
    25   12   13 ar
    26   12   30 1
    27   13   14 ar
    28   13   15 1
    29   15   16 2
    30   15   17 2
    31   15   18 1
    32   18   31 1
    33   18   32 1
    34   19   33 1
    35   19   34 1
    36   19   35 1
@<TRIPOS>SUBSTRUCTURE
     1   LIG104    1   GROUP 1   LIG 1
@<TRIPOS>MOLECULE
ZINC00538440
   36    36    1     0     0
SMALL
USER_CHARGES


@<TRIPOS>ATOM
      1 C1          5.8091   -0.8687   -4.3559 C.3       1    LIG58    0.0000
      2 S1          4.2583   -0.1516   -4.9654 S.o2      1    LIG58    0.0000
      3 O1          3.4453   -1.1635   -5.5438 O.2       1    LIG58    0.0000
      4 O2          4.5199    1.0563   -5.6666 O.2       1    LIG58    0.0000
      5 C2          3.3903    0.3488   -3.5160 C.ar      1    LIG58    0.0000
      6 C3          3.5708    1.6212   -3.0070 C.ar      1    LIG58    0.0000
      7 C4          2.8899    2.0138   -1.8699 C.ar      1    LIG58    0.0000
      8 C5          2.0284    1.1339   -1.2418 C.ar      1    LIG58    0.0000
      9 C6          1.8519   -0.1403   -1.7478 C.ar      1    LIG58    0.0000
     10 C7          2.5285   -0.5310   -2.8881 C.ar      1    LIG58    0.0000
     11 C8          1.2864    1.5618   -0.0018 C.3       1    LIG58    0.0000
     12 C9          2.0636    1.1140    1.2377 C.3       1    LIG58    0.0000
     13 C10         1.2513    1.4372    2.4933 C.3       1    LIG58    0.0000
     14 O3         -0.0445    0.8440    2.3882 O.3       1    LIG58    0.0000
     15 N1          2.3027   -0.3297    1.1689 N.am      1    LIG58    0.0000
     16 C11         3.3465   -0.8720    1.8269 C.2       1    LIG58    0.0000
     17 O4          4.0878   -0.1647    2.4759 O.2       1    LIG58    0.0000
     18 C12         3.5925   -2.3571    1.7562 C.3       1    LIG58    0.0000
     19 Cl1         4.9598   -2.7924    2.8479 Cl        1    LIG58    0.0000
     20 Cl2         2.1066   -3.2377    2.2736 Cl        1    LIG58    0.0000
     21 O5         -0.0110    0.9628    0.0073 O.3       1    LIG58    0.0000
     22 H1          6.3899   -0.0530   -3.9254 H         1    LIG58    0.0000
     23 H2          5.5426   -1.6153   -3.6078 H         1    LIG58    0.0000
     24 H3          6.3121   -1.3158   -5.2133 H         1    LIG58    0.0000
     25 H4          4.2501    2.3150   -3.5023 H         1    LIG58    0.0000
     26 H5          3.0323    3.0172   -1.4685 H         1    LIG58    0.0000
     27 H6          1.1792   -0.8370   -1.2476 H         1    LIG58    0.0000
     28 H7          2.3825   -1.5328   -3.2922 H         1    LIG58    0.0000
     29 H8          1.1857    2.6471    0.0051 H         1    LIG58    0.0000
     30 H9          3.0181    1.6389    1.2774 H         1    LIG58    0.0000
     31 H10         1.1450    2.5103    2.6523 H         1    LIG58    0.0000
     32 H11         1.7339    0.9873    3.3609 H         1    LIG58    0.0000
     33 H12        -0.5564    1.0843    3.2491 H         1    LIG58    0.0000
     34 H13         1.6731   -0.9303    0.6177 H         1    LIG58    0.0000
     35 H14         3.8421   -2.6357    0.7324 H         1    LIG58    0.0000
     36 H15        -0.4989    1.2883   -0.8394 H         1    LIG58    0.0000
@<TRIPOS>BOND
     1    1    2 1
     2    1   22 1
     3    1   23 1
     4    1   24 1
     5    2    3 2
     6    2    4 2
     7    2    5 1
     8    5    6 ar
     9    5   10 ar
    10    6    7 ar
    11    6   25 1
    12    7    8 ar
    13    7   26 1
    14    8    9 ar
    15    8   11 1
    16    9   10 ar
    17    9   27 1
    18   10   28 1
    19   11   12 1
    20   11   21 1
    21   11   29 1
    22   12   13 1
    23   12   15 1
    24   12   30 1
    25   13   14 1
    26   13   31 1
    27   13   32 1
    28   14   33 1
    29   15   16 am
    30   15   34 1
    31   16   17 2
    32   16   18 1
    33   18   19 1
    34   18   20 1
    35   18   35 1
    36   21   36 1
@<TRIPOS>SUBSTRUCTURE
     1    LIG58    1   GROUP 1   LIG 1
@<TRIPOS>MOLECULE
ZINC00001268
   44    45    1     0     0
SMALL
USER_CHARGES


@<TRIPOS>ATOM
      1 C1          1.6933   -4.5933   -2.2188 C.3       1    LIG60    0.0000
      2 C2          2.8202   -3.5635   -2.3221 C.3       1    LIG60    0.0000
      3 O1          2.7557   -2.6601   -1.1872 O.3       1    LIG60    0.0000
      4 C3          3.6817   -1.6902   -1.1270 C.2       1    LIG60    0.0000
      5 O2          4.5184   -1.5992   -1.9939 O.3       1    LIG60    0.0000
      6 C4          3.6777   -0.7148    0.0218 C.3       1    LIG60    0.0000
      7 C5          3.8641   -1.4727    1.3423 C.3       1    LIG60    0.0000
      8 C6          5.1051   -2.3596    1.2202 C.3       1    LIG60    0.0000
      9 C7          6.2620   -1.5605    0.6959 C.2       1    LIG60    0.0000
     10 C8          6.1434   -0.4162    0.1025 C.2       1    LIG60    0.0000
     11 C9          4.8329    0.2755   -0.1403 C.3       1    LIG60    0.0000
     12 C10         5.4347    1.0960    2.0568 C.3       1    LIG60    0.0000
     13 C11         5.0733    2.6547    0.2395 C.3       1    LIG60    0.0000
     14 C12         2.3694    0.0327    0.0470 C.ar      1    LIG60    0.0000
     15 C13         1.5059   -0.1213    1.1155 C.ar      1    LIG60    0.0000
     16 C14         0.3062    0.5651    1.1391 C.ar      1    LIG60    0.0000
     17 C15        -0.0298    1.4057    0.0945 C.ar      1    LIG60    0.0000
     18 C16         0.8339    1.5600   -0.9738 C.ar      1    LIG60    0.0000
     19 C17         2.0329    0.8726   -0.9980 C.ar      1    LIG60    0.0000
     20 N1          4.6488    1.3704    0.8354 N.3       1    LIG60    1.0000
     21 H1          1.7791   -5.2477   -3.0863 H         1    LIG60    0.0000
     22 H2          1.8422   -5.1362   -1.2854 H         1    LIG60    0.0000
     23 H3          0.7544   -4.0395   -2.2202 H         1    LIG60    0.0000
     24 H4          2.7560   -2.9889   -3.2461 H         1    LIG60    0.0000
     25 H5          3.7822   -4.0741   -2.2779 H         1    LIG60    0.0000
     26 H6          5.1178   -0.7975   -1.7510 H         1    LIG60    0.0000
     27 H7          2.9869   -2.0857    1.5492 H         1    LIG60    0.0000
     28 H8          3.9922   -0.7663    2.1625 H         1    LIG60    0.0000
     29 H9          4.9050   -3.1871    0.5395 H         1    LIG60    0.0000
     30 H10         5.3702   -2.7405    2.2065 H         1    LIG60    0.0000
     31 H11         7.2646   -1.9690    0.8226 H         1    LIG60    0.0000
     32 H12         7.0523    0.0764   -0.2428 H         1    LIG60    0.0000
     33 H13         4.8403    0.6765   -1.1538 H         1    LIG60    0.0000
     34 H14         5.2645    1.9288    2.7391 H         1    LIG60    0.0000
     35 H15         5.0683    0.1548    2.4668 H         1    LIG60    0.0000
     36 H16         6.4797    1.0268    1.7545 H         1    LIG60    0.0000
     37 H17         4.9178    3.4239    0.9960 H         1    LIG60    0.0000
     38 H18         6.1261    2.5516   -0.0232 H         1    LIG60    0.0000
     39 H19         4.4505    2.8193   -0.6398 H         1    LIG60    0.0000
     40 H20         1.7710   -0.7839    1.9394 H         1    LIG60    0.0000
     41 H21        -0.3748    0.4435    1.9814 H         1    LIG60    0.0000
     42 H22        -0.9758    1.9469    0.1131 H         1    LIG60    0.0000
     43 H23         0.5694    2.2237   -1.7970 H         1    LIG60    0.0000
     44 H24         2.7131    0.9929   -1.8412 H         1    LIG60    0.0000
@<TRIPOS>BOND
     1    1    2 1
     2    1   21 1
     3    1   22 1
     4    1   23 1
     5    2    3 1
     6    2   24 1
     7    2   25 1
     8    3    4 1
     9    4    5 1
    10    4    6 1
    11    5   26 1
    12    6    7 1
    13    6   11 1
    14    6   14 1
    15    7    8 1
    16    7   27 1
    17    7   28 1
    18    8    9 1
    19    8   29 1
    20    8   30 1
    21    9   10 2
    22    9   31 1
    23   10   11 1
    24   10   32 1
    25   11   20 1
    26   11   33 1
    27   12   20 1
    28   12   34 1
    29   12   35 1
    30   12   36 1
    31   13   20 1
    32   13   37 1
    33   13   38 1
    34   13   39 1
    35   14   15 ar
    36   14   19 ar
    37   15   16 ar
    38   15   40 1
    39   16   17 ar
    40   16   41 1
    41   17   18 ar
    42   17   42 1
    43   18   19 ar
    44   18   43 1
    45   19   44 1
@<TRIPOS>SUBSTRUCTURE
     1    LIG60    1   GROUP 1   LIG 1
@<TRIPOS>MOLECULE
ZINC11680943
   45    45    1     0     0
SMALL
USER_CHARGES


@<TRIPOS>ATOM
      1 C1         -0.1212    3.0801    6.5527 C.3       1    LIG25    0.0000
      2 C2         -0.9358    3.4860    5.3228 C.3       1    LIG25    0.0000
      3 C3         -0.9614    5.0116    5.2088 C.3       1    LIG25    0.0000
      4 C4         -1.8634    5.4152    4.0711 C.ar      1    LIG25    0.0000
      5 C5         -1.3455    5.5653    2.7982 C.ar      1    LIG25    0.0000
      6 C6         -2.1738    5.9309    1.7537 C.ar      1    LIG25    0.0000
      7 C7         -3.5180    6.1566    1.9839 C.ar      1    LIG25    0.0000
      8 C8         -4.0349    6.0116    3.2578 C.ar      1    LIG25    0.0000
      9 C9         -3.2076    5.6410    4.3013 C.ar      1    LIG25    0.0000
     10 N1         -0.3217    2.9168    4.1207 N.am      1    LIG25    0.0000
     11 C10        -0.6205    1.6580    3.7429 C.2       1    LIG25    0.0000
     12 O1         -1.3977    0.9965    4.3982 O.2       1    LIG25    0.0000
     13 C11         0.0111    1.0724    2.5063 C.3       1    LIG25    0.0000
     14 C12        -0.7288    1.5792    1.2668 C.3       1    LIG25    0.0000
     15 C13        -0.0127    1.0858    0.0080 C.3       1    LIG25    0.0000
     16 C14        -0.7527    1.5927   -1.2315 C.3       1    LIG25    0.0000
     17 C15        -0.0366    1.0992   -2.4903 C.3       1    LIG25    0.0000
     18 N2         -0.7445    1.6108   -3.6771 N.4       1    LIG25    1.0000
     19 N3         -0.0615   -0.3990    2.5389 N.2       1    LIG25    0.0000
     20 H1         -0.1292    1.9910    6.5950 H         1    LIG25    0.0000
     21 H2          0.8858    3.4728    6.4118 H         1    LIG25    0.0000
     22 H3         -0.6112    3.5230    7.4198 H         1    LIG25    0.0000
     23 H4         -1.9547    3.1119    5.4222 H         1    LIG25    0.0000
     24 H5          0.0443    5.3904    5.0269 H         1    LIG25    0.0000
     25 H6         -1.3487    5.4385    6.1339 H         1    LIG25    0.0000
     26 H7         -0.2840    5.3954    2.6182 H         1    LIG25    0.0000
     27 H8         -1.7670    6.0412    0.7485 H         1    LIG25    0.0000
     28 H9         -4.1703    6.4489    1.1610 H         1    LIG25    0.0000
     29 H10        -5.0948    6.1895    3.4394 H         1    LIG25    0.0000
     30 H11        -3.6152    5.5268    5.3058 H         1    LIG25    0.0000
     31 H12         0.3384    3.4786    3.5643 H         1    LIG25    0.0000
     32 H13         1.0566    1.3785    2.4706 H         1    LIG25    0.0000
     33 H14        -0.7435    2.6691    1.2728 H         1    LIG25    0.0000
     34 H15        -1.7514    1.2019    1.2745 H         1    LIG25    0.0000
     35 H16         0.0020   -0.0041    0.0020 H         1    LIG25    0.0000
     36 H17         1.0099    1.4630    0.0003 H         1    LIG25    0.0000
     37 H18        -0.7674    2.6826   -1.2255 H         1    LIG25    0.0000
     38 H19        -1.7753    1.2155   -1.2237 H         1    LIG25    0.0000
     39 H20        -0.0033    0.0102   -2.5243 H         1    LIG25    0.0000
     40 H21         0.9822    1.4864   -2.5082 H         1    LIG25    0.0000
     41 H22        -0.2385    1.2615   -4.5034 H         1    LIG25    0.0000
     42 H23        -1.7066    1.2456   -3.6346 H         1    LIG25    0.0000
     43 H24        -0.7224    2.6390   -3.6209 H         1    LIG25    0.0000
     44 H25         0.3285   -0.9512    1.7618 H         1    LIG25    0.0000
     45 H26        -0.5022   -0.8753    3.3388 H         1    LIG25    0.0000
@<TRIPOS>BOND
     1    1    2 1
     2    1   20 1
     3    1   21 1
     4    1   22 1
     5    2    3 1
     6    2   10 1
     7    2   23 1
     8    3    4 1
     9    3   24 1
    10    3   25 1
    11    4    5 ar
    12    4    9 ar
    13    5    6 ar
    14    5   26 1
    15    6    7 ar
    16    6   27 1
    17    7    8 ar
    18    7   28 1
    19    8    9 ar
    20    8   29 1
    21    9   30 1
    22   10   11 am
    23   10   31 1
    24   11   12 2
    25   11   13 1
    26   13   14 1
    27   13   19 1
    28   13   32 1
    29   14   15 1
    30   14   33 1
    31   14   34 1
    32   15   16 1
    33   15   35 1
    34   15   36 1
    35   16   17 1
    36   16   37 1
    37   16   38 1
    38   17   18 1
    39   17   39 1
    40   17   40 1
    41   18   41 1
    42   18   42 1
    43   18   43 1
    44   19   44 1
    45   19   45 1
@<TRIPOS>SUBSTRUCTURE
     1    LIG25    1   GROUP 1   LIG 1
@<TRIPOS>MOLECULE
ZINC00002276
   40    40    1     0     0
SMALL
USER_CHARGES


@<TRIPOS>ATOM
      1 C1          2.5424   -2.8010   -0.0368 C.3       1    LIG38    0.0000
      2 C2          1.2281   -2.0638   -0.0208 C.ar      1    LIG38    0.0000
      3 C3          0.0398   -2.7709   -0.0133 C.ar      1    LIG38    0.0000
      4 C4         -1.1677   -2.0980    0.0014 C.ar      1    LIG38    0.0000
      5 C5         -1.1897   -0.7157    0.0153 C.ar      1    LIG38    0.0000
      6 C6          0.0021   -0.0041    0.0020 C.ar      1    LIG38    0.0000
      7 C7          1.2118   -0.6824   -0.0132 C.ar      1    LIG38    0.0000
      8 O1         -0.0164    1.3550    0.0095 O.3       1    LIG38    0.0000
      9 C8          1.2479    2.0211    0.0010 C.3       1    LIG38    0.0000
     10 C9          1.0269    3.5350    0.0112 C.3       1    LIG38    0.0000
     11 C10         2.3763    4.2466    0.1279 C.3       1    LIG38    0.0000
     12 C11         3.4340    6.4108    0.3728 C.3       1    LIG38    0.0000
     13 C12         4.2779    6.1530   -0.8771 C.3       1    LIG38    0.0000
     14 C13         3.1657    7.9112    0.5064 C.3       1    LIG38    0.0000
     15 C14         4.1882    5.9156    1.6084 C.3       1    LIG38    0.0000
     16 O2          0.3831    3.9306   -1.2016 O.3       1    LIG38    0.0000
     17 Cl1        -2.7060    0.1291    0.0421 Cl        1    LIG38    0.0000
     18 N1          2.1477    5.6980    0.2583 N.3       1    LIG38    0.0000
     19 H1          3.3303   -2.0478   -0.0403 H         1    LIG38    0.0000
     20 H2          2.5738   -3.4160    0.8626 H         1    LIG38    0.0000
     21 H3          2.5569   -3.4069   -0.9428 H         1    LIG38    0.0000
     22 H4          0.0552   -3.8608   -0.0190 H         1    LIG38    0.0000
     23 H5         -2.1031   -2.6576    0.0020 H         1    LIG38    0.0000
     24 H6          2.1490   -0.1259   -0.0191 H         1    LIG38    0.0000
     25 H7          1.7478    1.7357   -0.9246 H         1    LIG38    0.0000
     26 H8          1.8392    1.6837    0.8523 H         1    LIG38    0.0000
     27 H9          0.3992    3.8048    0.8605 H         1    LIG38    0.0000
     28 H10         3.0002    4.0516   -0.7443 H         1    LIG38    0.0000
     29 H11         2.8952    3.9022    1.0225 H         1    LIG38    0.0000
     30 H12         4.4443    5.0772   -0.9330 H         1    LIG38    0.0000
     31 H13         3.7054    6.5193   -1.7293 H         1    LIG38    0.0000
     32 H14         5.2113    6.7014   -0.7501 H         1    LIG38    0.0000
     33 H15         2.5646    8.0487    1.4052 H         1    LIG38    0.0000
     34 H16         4.1354    8.4023    0.5883 H         1    LIG38    0.0000
     35 H17         2.6295    8.2202   -0.3909 H         1    LIG38    0.0000
     36 H18         3.5538    6.1180    2.4714 H         1    LIG38    0.0000
     37 H19         4.3576    4.8476    1.4716 H         1    LIG38    0.0000
     38 H20         5.1245    6.4718    1.6544 H         1    LIG38    0.0000
     39 H21        -0.5171    3.4316   -1.2413 H         1    LIG38    0.0000
     40 H22         1.5884    5.8755    1.1048 H         1    LIG38    0.0000
@<TRIPOS>BOND
     1    1    2 1
     2    1   19 1
     3    1   20 1
     4    1   21 1
     5    2    3 ar
     6    2    7 ar
     7    3    4 ar
     8    3   22 1
     9    4    5 ar
    10    4   23 1
    11    5    6 ar
    12    5   17 1
    13    6    7 ar
    14    6    8 1
    15    7   24 1
    16    8    9 1
    17    9   10 1
    18    9   25 1
    19    9   26 1
    20   10   11 1
    21   10   16 1
    22   10   27 1
    23   11   18 1
    24   11   28 1
    25   11   29 1
    26   12   13 1
    27   12   14 1
    28   12   15 1
    29   12   18 1
    30   13   30 1
    31   13   31 1
    32   13   32 1
    33   14   33 1
    34   14   34 1
    35   14   35 1
    36   15   36 1
    37   15   37 1
    38   15   38 1
    39   16   39 1
    40   18   40 1
@<TRIPOS>SUBSTRUCTURE
     1    LIG38    1   GROUP 1   LIG 1
@<TRIPOS>MOLECULE
ZINC00000106
   40    40    1     0     0
SMALL
USER_CHARGES


@<TRIPOS>ATOM
      1 C1         -2.5589    3.8643    0.0472 C.3       1    LIG41    0.0000
      2 C2         -1.2414    3.1328    0.0307 C.ar      1    LIG41    0.0000
      3 C3         -1.2193    1.7503    0.0173 C.ar      1    LIG41    0.0000
      4 C4         -0.0126    1.0758    0.0080 C.ar      1    LIG41    0.0000
      5 C5          1.1755    1.7829    0.0004 C.ar      1    LIG41    0.0000
      6 C6          1.1553    3.1709    0.0081 C.ar      1    LIG41    0.0000
      7 C7         -0.0572    3.8443    0.0233 C.ar      1    LIG41    0.0000
      8 O1          2.3217    3.8688    0.0011 O.3       1    LIG41    0.0000
      9 C8          2.2247    5.2945    0.0097 C.3       1    LIG41    0.0000
     10 C9          3.6292    5.9013    0.0001 C.3       1    LIG41    0.0000
     11 C10         3.5287    7.4220    0.1349 C.3       1    LIG41    0.0000
     12 C11         4.8197    9.4669    0.2536 C.3       1    LIG41    0.0000
     13 C12         4.1344    9.8371    1.5704 C.3       1    LIG41    0.0000
     14 C13         6.2398   10.0362    0.2401 C.3       1    LIG41    0.0000
     15 C14         4.0252   10.0504   -0.9165 C.3       1    LIG41    0.0000
     16 O2          4.2810    5.5741   -1.2288 O.3       1    LIG41    0.0000
     17 Cl1         2.6907    0.9359   -0.0180 Cl        1    LIG41    0.0000
     18 N1          4.8862    7.9989    0.1248 N.3       1    LIG41    0.0000
     19 H1         -2.3315    4.9303    0.0558 H         1    LIG41    0.0000
     20 H2         -3.0970    3.5720   -0.8545 H         1    LIG41    0.0000
     21 H3         -3.0840    3.5547    0.9508 H         1    LIG41    0.0000
     22 H4         -2.1550    1.1913    0.0141 H         1    LIG41    0.0000
     23 H5          0.0022   -0.0141    0.0067 H         1    LIG41    0.0000
     24 H6         -0.0757    4.9341    0.0294 H         1    LIG41    0.0000
     25 H7          1.7190    5.5699    0.9352 H         1    LIG41    0.0000
     26 H8          1.6273    5.6206   -0.8417 H         1    LIG41    0.0000
     27 H9          4.2042    5.4998    0.8345 H         1    LIG41    0.0000
     28 H10         3.0192    7.7021    1.0569 H         1    LIG41    0.0000
     29 H11         2.9798    7.8289   -0.7143 H         1    LIG41    0.0000
     30 H12         3.1306    9.4137    1.5373 H         1    LIG41    0.0000
     31 H13         4.7309    9.4034    2.3730 H         1    LIG41    0.0000
     32 H14         4.1135   10.9256    1.6238 H         1    LIG41    0.0000
     33 H15         6.6888    9.7501   -0.7110 H         1    LIG41    0.0000
     34 H16         6.1503   11.1182    0.3368 H         1    LIG41    0.0000
     35 H17         6.7677    9.5960    1.0861 H         1    LIG41    0.0000
     36 H18         4.5463    9.7638   -1.8300 H         1    LIG41    0.0000
     37 H19         3.0249    9.6200   -0.8686 H         1    LIG41    0.0000
     38 H20         4.0079   11.1319   -0.7821 H         1    LIG41    0.0000
     39 H21         4.3282    4.5465   -1.2804 H         1    LIG41    0.0000
     40 H22         5.3464    7.7600   -0.7652 H         1    LIG41    0.0000
@<TRIPOS>BOND
     1    1    2 1
     2    1   19 1
     3    1   20 1
     4    1   21 1
     5    2    3 ar
     6    2    7 ar
     7    3    4 ar
     8    3   22 1
     9    4    5 ar
    10    4   23 1
    11    5    6 ar
    12    5   17 1
    13    6    7 ar
    14    6    8 1
    15    7   24 1
    16    8    9 1
    17    9   10 1
    18    9   25 1
    19    9   26 1
    20   10   11 1
    21   10   16 1
    22   10   27 1
    23   11   18 1
    24   11   28 1
    25   11   29 1
    26   12   13 1
    27   12   14 1
    28   12   15 1
    29   12   18 1
    30   13   30 1
    31   13   31 1
    32   13   32 1
    33   14   33 1
    34   14   34 1
    35   14   35 1
    36   15   36 1
    37   15   37 1
    38   15   38 1
    39   16   39 1
    40   18   40 1
@<TRIPOS>SUBSTRUCTURE
     1    LIG41    1   GROUP 1   LIG 1
@<TRIPOS>MOLECULE
ZINC00113378
   32    32    1     0     0
SMALL
USER_CHARGES


@<TRIPOS>ATOM
      1 C1          0.0374    1.1283   -0.0435 C.ar      1    LIG31    0.0000
      2 C2          1.1809    1.8995   -0.1357 C.ar      1    LIG31    0.0000
      3 C3          1.0813    3.2752   -0.2266 C.ar      1    LIG31    0.0000
      4 C4         -0.1619    3.8797   -0.2263 C.ar      1    LIG31    0.0000
      5 C5         -1.3054    3.1085   -0.1345 C.ar      1    LIG31    0.0000
      6 C6         -1.2059    1.7324   -0.0480 C.ar      1    LIG31    0.0000
      7 C7         -2.4528    0.8913    0.0462 C.3       1    LIG31    0.0000
      8 C8         -2.9734    0.9104    1.4848 C.3       1    LIG31    0.0000
      9 C9         -4.2152    0.0229    1.5896 C.3       1    LIG31    0.0000
     10 O1         -3.9014   -1.2921    1.1265 O.3       1    LIG31    0.0000
     11 N1         -1.9350    0.4058    2.3867 N.am      1    LIG31    0.0000
     12 C10        -1.9308    0.7749    3.6829 C.2       1    LIG31    0.0000
     13 O2         -2.7866    1.5247    4.1027 O.2       1    LIG31    0.0000
     14 C11        -0.8626    0.2558    4.6107 C.3       1    LIG31    0.0000
     15 Cl1        -1.2090    0.8047    6.2928 Cl        1    LIG31    0.0000
     16 Cl2        -0.8449   -1.5463    4.5582 Cl        1    LIG31    0.0000
     17 O3         -3.4512    1.4199   -0.8288 O.3       1    LIG31    0.0000
     18 N2          2.3058    4.1010   -0.3249 N.pl3     1    LIG31    0.0000
     19 O4          3.4011    3.5684   -0.3256 O.2       1    LIG31    0.0000
     20 O5          2.2180    5.3132   -0.4050 O.2       1    LIG31    0.0000
     21 H1          0.1161    0.0438    0.0328 H         1    LIG31    0.0000
     22 H2          2.1611    1.4228   -0.1367 H         1    LIG31    0.0000
     23 H3         -0.2405    4.9645   -0.2985 H         1    LIG31    0.0000
     24 H4         -2.2855    3.5854   -0.1303 H         1    LIG31    0.0000
     25 H5         -2.2222   -0.1340   -0.2431 H         1    LIG31    0.0000
     26 H6         -3.2322    1.9318    1.7640 H         1    LIG31    0.0000
     27 H7         -5.0545    0.4166    1.0163 H         1    LIG31    0.0000
     28 H8         -4.5032   -0.0725    2.6365 H         1    LIG31    0.0000
     29 H9         -4.7597   -1.8548    1.2133 H         1    LIG31    0.0000
     30 H10        -1.2082   -0.2310    2.0302 H         1    LIG31    0.0000
     31 H11         0.1087    0.6380    4.2966 H         1    LIG31    0.0000
     32 H12        -3.0627    1.3894   -1.7823 H         1    LIG31    0.0000
@<TRIPOS>BOND
     1    1    2 ar
     2    1    6 ar
     3    1   21 1
     4    2    3 ar
     5    2   22 1
     6    3    4 ar
     7    3   18 1
     8    4    5 ar
     9    4   23 1
    10    5    6 ar
    11    5   24 1
    12    6    7 1
    13    7    8 1
    14    7   17 1
    15    7   25 1
    16    8    9 1
    17    8   11 1
    18    8   26 1
    19    9   10 1
    20    9   27 1
    21    9   28 1
    22   10   29 1
    23   11   12 am
    24   11   30 1
    25   12   13 2
    26   12   14 1
    27   14   15 1
    28   14   16 1
    29   14   31 1
    30   17   32 1
    31   18   19 2
    32   18   20 2
@<TRIPOS>SUBSTRUCTURE
     1    LIG31    1   GROUP 1   LIG 1
@<TRIPOS>MOLECULE
ZINC19702309
   20    22    1     0     0
SMALL
USER_CHARGES


@<TRIPOS>ATOM
      1 C1         -0.0127    1.0858    0.0080 C.ar      1    LIG97    0.0000
      2 C2         -0.6188    1.6077    1.3232 C.ar      1    LIG97    0.0000
      3 N1          0.4614    2.3888    1.9416 N.ar      1    LIG97    0.0000
      4 C3          1.5591    2.3512    1.1310 C.ar      1    LIG97    0.0000
      5 N2          1.3572    1.6174   -0.0022 N.ar      1    LIG97    0.0000
      6 N3          2.6908    2.9576    1.4119 N.2       1    LIG97    0.0000
      7 C4          3.7445    2.8716    0.5473 C.ar      1    LIG97    0.0000
      8 C5          4.6651    1.8475    0.6644 C.ar      1    LIG97    0.0000
      9 C6          5.7426    1.7478   -0.2090 C.ar      1    LIG97    0.0000
     10 C7          5.9477    2.6361   -1.2094 C.ar      1    LIG97    0.0000
     11 C8          5.0598    3.7262   -1.4173 C.ar      1    LIG97    0.0000
     12 C9          3.9124    3.8674   -0.5288 C.ar      1    LIG97    0.0000
     13 N4          3.1488    4.9175   -0.8184 N.ar      1    LIG97    0.0000
     14 S1          3.8402    5.6196   -2.0902 S.2       1    LIG97    0.0000
     15 N5          5.1203    4.6798   -2.3482 N.ar      1    LIG97    0.0000
     16 Cl1         4.4735    0.6668    1.9225 Cl        1    LIG97    0.0000
     17 H1         -0.4921    0.4619   -0.7464 H         1    LIG97    0.0000
     18 H2         -1.6237    1.4363    1.7092 H         1    LIG97    0.0000
     19 H3          6.4468    0.9253   -0.0835 H         1    LIG97    0.0000
     20 H4          6.8085    2.5133   -1.8668 H         1    LIG97    0.0000
@<TRIPOS>BOND
     1    1    2 ar
     2    1    5 ar
     3    1   17 1
     4    2    3 ar
     5    2   18 1
     6    3    4 ar
     7    4    5 ar
     8    4    6 2
     9    6    7 1
    10    7    8 ar
    11    7   12 ar
    12    8    9 ar
    13    8   16 1
    14    9   10 ar
    15    9   19 1
    16   10   11 ar
    17   10   20 1
    18   11   12 ar
    19   11   15 ar
    20   12   13 ar
    21   13   14 ar
    22   14   15 ar
@<TRIPOS>SUBSTRUCTURE
     1    LIG97    1   GROUP 1   LIG 1
@<TRIPOS>MOLECULE
ZINC19796039
   56    57    1     0     0
SMALL
USER_CHARGES


@<TRIPOS>ATOM
      1 C1         -2.3669   -0.9201    0.0143 C.3       1    LIG67    0.0000
      2 C2         -0.8508   -1.0920   -0.0992 C.3       1    LIG67    0.0000
      3 O1         -0.3390   -1.6247    1.1240 O.3       1    LIG67    0.0000
      4 C3          0.9920   -1.8379    1.1900 C.2       1    LIG67    0.0000
      5 O2          1.6979   -1.5779    0.2335 O.3       1    LIG67    0.0000
      6 C4          1.5663   -2.3635    2.3705 C.2       1    LIG67    0.0000
      7 C5          1.4893   -3.6844    2.6076 C.2       1    LIG67    0.0000
      8 N1          2.0418   -4.2273    3.7355 N.3       1    LIG67    0.0000
      9 C6          2.9751   -3.5288    4.4518 C.2       1    LIG67    0.0000
     10 C7          3.1134   -2.2013    4.2923 C.2       1    LIG67    0.0000
     11 C8          2.2545   -1.4343    3.3297 C.3       1    LIG67    0.0000
     12 C9          1.2171   -0.6630    4.1042 C.ar      1    LIG67    0.0000
     13 C10         0.3009   -1.3352    4.8915 C.ar      1    LIG67    0.0000
     14 C11        -0.6507   -0.6279    5.6019 C.ar      1    LIG67    0.0000
     15 C12        -0.6869    0.7521    5.5257 C.ar      1    LIG67    0.0000
     16 C13         0.2284    1.4252    4.7390 C.ar      1    LIG67    0.0000
     17 C14         1.1849    0.7180    4.0320 C.ar      1    LIG67    0.0000
     18 Cl1         2.3393    1.5632    3.0488 Cl        1    LIG67    0.0000
     19 C15         4.0934   -1.5126    5.0439 C.2       1    LIG67    0.0000
     20 O3          4.8005   -2.1217    5.8248 O.3       1    LIG67    0.0000
     21 O4          4.2446   -0.1798    4.8951 O.3       1    LIG67    0.0000
     22 C16         5.2539    0.4509    5.6860 C.3       1    LIG67    0.0000
     23 C17         3.8586   -4.2567    5.4320 C.3       1    LIG67    0.0000
     24 C18         0.7865   -4.5783    1.6187 C.3       1    LIG67    0.0000
     25 O5          1.7317   -5.4747    1.0312 O.3       1    LIG67    0.0000
     26 C19         1.1651   -6.3711    0.0734 C.3       1    LIG67    0.0000
     27 C20         2.2620   -7.2786   -0.4871 C.3       1    LIG67    0.0000
     28 N2          2.7843   -8.1355    0.5857 N.4       1    LIG67    1.0000
     29 H1         -2.7135   -0.5135   -0.9358 H         1    LIG67    0.0000
     30 H2         -2.7858   -1.9072    0.2096 H         1    LIG67    0.0000
     31 H3         -2.5487   -0.2321    0.8400 H         1    LIG67    0.0000
     32 H4         -0.3437   -0.1537   -0.3243 H         1    LIG67    0.0000
     33 H5         -0.6277   -1.8214   -0.8778 H         1    LIG67    0.0000
     34 H6          2.6644   -1.8148    0.4993 H         1    LIG67    0.0000
     35 H7          2.5488   -5.0576    3.3971 H         1    LIG67    0.0000
     36 H8          2.8873   -0.7536    2.7602 H         1    LIG67    0.0000
     37 H9          0.3289   -2.4232    4.9521 H         1    LIG67    0.0000
     38 H10        -1.3729   -1.1583    6.2225 H         1    LIG67    0.0000
     39 H11        -1.4375    1.3093    6.0862 H         1    LIG67    0.0000
     40 H12         0.1969    2.5129    4.6754 H         1    LIG67    0.0000
     41 H13         5.4333   -1.4339    6.2576 H         1    LIG67    0.0000
     42 H14         5.2349    1.5125    5.4394 H         1    LIG67    0.0000
     43 H15         4.9979    0.2728    6.7304 H         1    LIG67    0.0000
     44 H16         6.2041   -0.0106    5.4173 H         1    LIG67    0.0000
     45 H17         4.5161   -3.5127    5.8818 H         1    LIG67    0.0000
     46 H18         3.2029   -4.7176    6.1707 H         1    LIG67    0.0000
     47 H19         4.4173   -5.0015    4.8653 H         1    LIG67    0.0000
     48 H20         0.2972   -4.0027    0.8330 H         1    LIG67    0.0000
     49 H21         0.0455   -5.1834    2.1410 H         1    LIG67    0.0000
     50 H22         0.7591   -5.7571   -0.7305 H         1    LIG67    0.0000
     51 H23         0.3592   -6.9366    0.5412 H         1    LIG67    0.0000
     52 H24         3.0771   -6.6933   -0.9127 H         1    LIG67    0.0000
     53 H25         1.8394   -7.9257   -1.2557 H         1    LIG67    0.0000
     54 H26         3.5166   -8.7277    0.1685 H         1    LIG67    0.0000
     55 H27         3.1640   -7.5113    1.3117 H         1    LIG67    0.0000
     56 H28         1.9935   -8.6945    0.9366 H         1    LIG67    0.0000
@<TRIPOS>BOND
     1    1    2 1
     2    1   29 1
     3    1   30 1
     4    1   31 1
     5    2    3 1
     6    2   32 1
     7    2   33 1
     8    3    4 1
     9    4    5 1
    10    4    6 1
    11    5   34 1
    12    6    7 2
    13    6   11 1
    14    7    8 1
    15    7   24 1
    16    8    9 1
    17    8   35 1
    18    9   10 2
    19    9   23 1
    20   10   11 1
    21   10   19 1
    22   11   12 1
    23   11   36 1
    24   12   13 ar
    25   12   17 ar
    26   13   14 ar
    27   13   37 1
    28   14   15 ar
    29   14   38 1
    30   15   16 ar
    31   15   39 1
    32   16   17 ar
    33   16   40 1
    34   17   18 1
    35   19   20 1
    36   19   21 1
    37   20   41 1
    38   21   22 1
    39   22   42 1
    40   22   43 1
    41   22   44 1
    42   23   45 1
    43   23   46 1
    44   23   47 1
    45   24   25 1
    46   24   48 1
    47   24   49 1
    48   25   26 1
    49   26   27 1
    50   26   50 1
    51   26   51 1
    52   27   28 1
    53   27   52 1
    54   27   53 1
    55   28   54 1
    56   28   55 1
    57   28   56 1
@<TRIPOS>SUBSTRUCTURE
     1    LIG67    1   GROUP 1   LIG 1
